1971
  -OEChem-09252020473D

 39 42  0     1  0  0  0  0  0999 V2000
   -5.4837   -1.9646   -0.2683 O   0  0  0  0  0  0  0  0  0  0  0  0
    3.5995    0.4698    0.1334 N   0  0  0  0  0  0  0  0  0  0  0  0
   -0.8811    1.5606   -0.0042 N   0  0  0  0  0  0  0  0  0  0  0  0
    1.2074    2.3352   -0.0786 N   0  0  0  0  0  0  0  0  0  0  0  0
    1.9605   -1.2650    0.3111 N   0  0  0  0  0  0  0  0  0  0  0  0
   -0.4371   -0.8137    0.2520 N   0  0  0  0  0  0  0  0  0  0  0  0
    0.3868   -2.9907    0.4909 N   0  0  0  0  0  0  0  0  0  0  0  0
    4.7448   -0.4334    0.2356 C   0  0  0  0  0  0  0  0  0  0  0  0
    6.0870   -0.0608   -0.3249 C   0  0  0  0  0  0  0  0  0  0  0  0
    5.2826   -1.1523   -0.9678 C   0  0  0  0  0  0  0  0  0  0  0  0
   -2.3454    1.5678   -0.0124 C   0  0  1  0  0  0  0  0  0  0  0  0
   -2.9854    0.7232   -1.1307 C   0  0  0  0  0  0  0  0  0  0  0  0
   -3.5914   -0.5170   -0.4473 C   0  0  1  0  0  0  0  0  0  0  0  0
   -2.9419    0.9966    1.2358 C   0  0  0  0  0  0  0  0  0  0  0  0
   -3.6302   -0.1239    0.9975 C   0  0  0  0  0  0  0  0  0  0  0  0
    2.2586    0.0493    0.1719 C   0  0  0  0  0  0  0  0  0  0  0  0
   -0.0694    0.4693    0.1162 C   0  0  0  0  0  0  0  0  0  0  0  0
    1.2215    0.9709    0.0683 C   0  0  0  0  0  0  0  0  0  0  0  0
   -4.9649   -0.8686   -1.0016 C   0  0  0  0  0  0  0  0  0  0  0  0
   -0.0688    2.6570   -0.1191 C   0  0  0  0  0  0  0  0  0  0  0  0
    0.6505   -1.6097    0.3420 C   0  0  0  0  0  0  0  0  0  0  0  0
    4.7551   -0.9701    1.1792 H   0  0  0  0  0  0  0  0  0  0  0  0
    6.9667   -0.3470    0.2383 H   0  0  0  0  0  0  0  0  0  0  0  0
    6.1806    0.8764   -0.8595 H   0  0  0  0  0  0  0  0  0  0  0  0
    4.8374   -0.9468   -1.9334 H   0  0  0  0  0  0  0  0  0  0  0  0
    5.6192   -2.1732   -0.8360 H   0  0  0  0  0  0  0  0  0  0  0  0
   -2.6535    2.6144   -0.1253 H   0  0  0  0  0  0  0  0  0  0  0  0
   -2.2758    0.4373   -1.9158 H   0  0  0  0  0  0  0  0  0  0  0  0
   -3.7713    1.3153   -1.6187 H   0  0  0  0  0  0  0  0  0  0  0  0
   -2.9300   -1.3856   -0.5489 H   0  0  0  0  0  0  0  0  0  0  0  0
    3.7487    1.4687    0.0346 H   0  0  0  0  0  0  0  0  0  0  0  0
   -2.8240    1.4373    2.2157 H   0  0  0  0  0  0  0  0  0  0  0  0
   -4.1156   -0.7026    1.7709 H   0  0  0  0  0  0  0  0  0  0  0  0
   -4.8936   -1.1523   -2.0567 H   0  0  0  0  0  0  0  0  0  0  0  0
   -5.6649   -0.0307   -0.9095 H   0  0  0  0  0  0  0  0  0  0  0  0
   -0.4587    3.6598   -0.2292 H   0  0  0  0  0  0  0  0  0  0  0  0
   -6.3558   -2.1735   -0.6441 H   0  0  0  0  0  0  0  0  0  0  0  0
   -0.5708   -3.3124    0.5211 H   0  0  0  0  0  0  0  0  0  0  0  0
    1.1589   -3.6387    0.5639 H   0  0  0  0  0  0  0  0  0  0  0  0
  1 19  1  0  0  0  0
  1 37  1  0  0  0  0
  2  8  1  0  0  0  0
  2 16  1  0  0  0  0
  2 31  1  0  0  0  0
  3 11  1  0  0  0  0
  3 17  1  0  0  0  0
  3 20  1  0  0  0  0
  4 18  1  0  0  0  0
  4 20  2  0  0  0  0
  5 16  1  0  0  0  0
  5 21  2  0  0  0  0
  6 17  2  0  0  0  0
  6 21  1  0  0  0  0
  7 21  1  0  0  0  0
  7 38  1  0  0  0  0
  7 39  1  0  0  0  0
  8  9  1  0  0  0  0
  8 10  1  0  0  0  0
  8 22  1  0  0  0  0
  9 10  1  0  0  0  0
  9 23  1  0  0  0  0
  9 24  1  0  0  0  0
 10 25  1  0  0  0  0
 10 26  1  0  0  0  0
 11 12  1  0  0  0  0
 11 14  1  0  0  0  0
 11 27  1  0  0  0  0
 12 13  1  0  0  0  0
 12 28  1  0  0  0  0
 12 29  1  0  0  0  0
 13 15  1  0  0  0  0
 13 19  1  0  0  0  0
 13 30  1  0  0  0  0
 14 15  2  0  0  0  0
 14 32  1  0  0  0  0
 15 33  1  0  0  0  0
 16 18  2  0  0  0  0
 17 18  1  0  0  0  0
 19 34  1  0  0  0  0
 19 35  1  0  0  0  0
 20 36  1  0  0  0  0
M  END
> <PUBCHEM_COMPOUND_CID>
1971

> <PUBCHEM_CONFORMER_RMSD>
0.8

> <PUBCHEM_CONFORMER_DIVERSEORDER>
2
31
16
33
27
25
13
26
40
48
36
37
30
39
4
23
41
47
11
38
20
32
9
34
10
43
19
1
42
3
14
15
29
17
45
21
44
24
6
46
12
7
5
22
28
35
18
8

> <PUBCHEM_MMFF94_PARTIAL_CHARGES>
32
1 -0.68
10 -0.2
11 0.39
13 0.14
14 -0.29
15 -0.29
16 0.41
17 0.11
18 0.23
19 0.28
2 -0.67
20 0.04
21 0.72
22 0.1
23 0.1
24 0.1
25 0.1
26 0.1
3 0.05
31 0.4
32 0.15
33 0.15
36 0.15
37 0.4
38 0.4
39 0.4
4 -0.57
5 -0.62
6 -0.57
7 -0.9
8 0.07
9 -0.2

> <PUBCHEM_EFFECTIVE_ROTOR_COUNT>
5.2

> <PUBCHEM_PHARMACOPHORE_FEATURES>
10
1 1 acceptor
1 1 donor
1 2 cation
1 2 donor
1 7 donor
3 3 4 20 cation
4 5 6 7 21 cation
5 11 12 13 14 15 rings
5 3 4 17 18 20 rings
6 5 6 16 17 18 21 rings

> <PUBCHEM_HEAVY_ATOM_COUNT>
21

> <PUBCHEM_ATOM_DEF_STEREO_COUNT>
0

> <PUBCHEM_ATOM_UDEF_STEREO_COUNT>
2

> <PUBCHEM_BOND_DEF_STEREO_COUNT>
0

> <PUBCHEM_BOND_UDEF_STEREO_COUNT>
0

> <PUBCHEM_ISOTOPIC_ATOM_COUNT>
0

> <PUBCHEM_COMPONENT_COUNT>
1

> <PUBCHEM_CACTVS_TAUTO_COUNT>
6

> <PUBCHEM_CONFORMER_ID>
000007B300000002

> <PUBCHEM_MMFF94_ENERGY>
46.41

> <PUBCHEM_FEATURE_SELFOVERLAP>
50.88

> <PUBCHEM_SHAPE_FINGERPRINT>
11089746 13 12685089314921941943
11578080 2 17098896032440487462
11680986 33 18192713577449181720
11806522 49 18411697699083652293
12011746 2 18333446556204763263
12236239 1 17917712431135375281
13140716 1 18265063602766857705
13288520 33 18343584031832513541
13583140 156 16226053305534918320
13862211 1 18408882928247956290
14576447 43 18410285921758543271
14787075 74 18409452483802907024
14790565 3 18337404755347835584
15196674 1 18411136948069324384
15209289 33 18272371970688961080
15848702 151 17775008951406663118
17349148 13 18114469972459014048
17980427 23 17096100099051854604
18222031 100 18410285926269678168
19591789 44 18410293605829367914
19784866 240 18341332279769786413
200 152 18342451565384768913
20028762 73 18129659828360437983
21267235 1 18411985797422270327
221490 88 18191024714946589323
22393880 68 18335688438970578325
23402539 116 18341049627755797724
23559900 14 18337379556922026257
283562 15 18338235955904488112
2871803 45 18409156728070382855
3286 77 17703506687713063641
335352 9 18410572903716400869
34934 24 18192994812161087137
474229 33 18408604755995698546
59755656 215 18408881815709203279

> <PUBCHEM_SHAPE_MULTIPOLES>
396.41
11.21
2.39
0.93
7.1
0.02
0.03
4.81
2.54
-0.76
-0.08
-0.62
0.05
-0.25

> <PUBCHEM_SHAPE_SELFOVERLAP>
859.17

> <PUBCHEM_SHAPE_VOLUME>
216.4

> <PUBCHEM_COORDINATE_TYPE>
2
5
10

$$$$
