135398513
  -OEChem-09252020473D

 27 28  0     0  0  0  0  0  0999 V2000
   -2.4641    0.0296   -0.1437 O   0  0  0  0  0  0  0  0  0  0  0  0
    3.8291    1.0019    0.9368 O   0  0  0  0  0  0  0  0  0  0  0  0
   -4.6589    0.0593    1.5967 O   0  0  0  0  0  0  0  0  0  0  0  0
   -0.3931    0.9500   -0.6713 N   0  0  0  0  0  0  0  0  0  0  0  0
    1.2666    2.2424    0.0880 N   0  0  0  0  0  0  0  0  0  0  0  0
    0.6329   -1.2357   -0.5021 N   0  0  0  0  0  0  0  0  0  0  0  0
    2.8592   -1.0433    0.3623 N   0  0  0  0  0  0  0  0  0  0  0  0
    1.9621   -3.1485   -0.1899 N   0  0  0  0  0  0  0  0  0  0  0  0
    0.6358    0.1088   -0.3656 C   0  0  0  0  0  0  0  0  0  0  0  0
   -1.6871    0.5894   -1.1987 C   0  0  0  0  0  0  0  0  0  0  0  0
    1.6358    0.9298    0.0965 C   0  0  0  0  0  0  0  0  0  0  0  0
    0.0344    2.2226   -0.3814 C   0  0  0  0  0  0  0  0  0  0  0  0
    2.8832    0.3504    0.5119 C   0  0  0  0  0  0  0  0  0  0  0  0
   -3.7632   -0.3384   -0.5877 C   0  0  0  0  0  0  0  0  0  0  0  0
    1.7644   -1.7933   -0.1289 C   0  0  0  0  0  0  0  0  0  0  0  0
   -4.5370   -0.9251    0.5770 C   0  0  0  0  0  0  0  0  0  0  0  0
   -1.5384   -0.1385   -2.0036 H   0  0  0  0  0  0  0  0  0  0  0  0
   -2.1670    1.4907   -1.5952 H   0  0  0  0  0  0  0  0  0  0  0  0
   -0.5932    3.0907   -0.5312 H   0  0  0  0  0  0  0  0  0  0  0  0
   -3.6850   -1.0764   -1.3934 H   0  0  0  0  0  0  0  0  0  0  0  0
   -4.2760    0.5553   -0.9616 H   0  0  0  0  0  0  0  0  0  0  0  0
    3.6954   -1.5553    0.6282 H   0  0  0  0  0  0  0  0  0  0  0  0
   -5.5379   -1.2341    0.2622 H   0  0  0  0  0  0  0  0  0  0  0  0
   -4.0050   -1.7824    1.0012 H   0  0  0  0  0  0  0  0  0  0  0  0
    1.2357   -3.7702   -0.5280 H   0  0  0  0  0  0  0  0  0  0  0  0
    2.8382   -3.5688    0.1004 H   0  0  0  0  0  0  0  0  0  0  0  0
   -5.1573   -0.3468    2.3263 H   0  0  0  0  0  0  0  0  0  0  0  0
  1 10  1  0  0  0  0
  1 14  1  0  0  0  0
  2 13  2  0  0  0  0
  3 16  1  0  0  0  0
  3 27  1  0  0  0  0
  4  9  1  0  0  0  0
  4 10  1  0  0  0  0
  4 12  1  0  0  0  0
  5 11  1  0  0  0  0
  5 12  2  0  0  0  0
  6  9  1  0  0  0  0
  6 15  2  0  0  0  0
  7 13  1  0  0  0  0
  7 15  1  0  0  0  0
  7 22  1  0  0  0  0
  8 15  1  0  0  0  0
  8 25  1  0  0  0  0
  8 26  1  0  0  0  0
  9 11  2  0  0  0  0
 10 17  1  0  0  0  0
 10 18  1  0  0  0  0
 11 13  1  0  0  0  0
 12 19  1  0  0  0  0
 14 16  1  0  0  0  0
 14 20  1  0  0  0  0
 14 21  1  0  0  0  0
 16 23  1  0  0  0  0
 16 24  1  0  0  0  0
M  END
> <PUBCHEM_COMPOUND_CID>
135398513

> <PUBCHEM_CONFORMER_RMSD>
0.6

> <PUBCHEM_CONFORMER_DIVERSEORDER>
1
25
13
16
10
26
42
15
18
7
31
44
32
22
36
27
37
17
6
34
12
4
2
38
11
28
14
41
30
8
3
40
5
35
43
9
24
39
33
20
19
23
45
21
29

> <PUBCHEM_MMFF94_PARTIAL_CHARGES>
21
1 -0.56
10 0.54
11 0.14
12 0.04
13 0.72
14 0.28
15 0.56
16 0.28
19 0.15
2 -0.57
22 0.37
25 0.4
26 0.4
27 0.4
3 -0.68
4 0.05
5 -0.57
6 -0.58
7 -0.49
8 -0.85
9 -0.03

> <PUBCHEM_EFFECTIVE_ROTOR_COUNT>
4

> <PUBCHEM_PHARMACOPHORE_FEATURES>
9
1 1 acceptor
1 2 acceptor
1 3 acceptor
1 3 donor
1 7 donor
1 8 donor
3 4 5 12 cation
5 4 5 9 11 12 rings
6 6 7 9 11 13 15 rings

> <PUBCHEM_HEAVY_ATOM_COUNT>
16

> <PUBCHEM_ATOM_DEF_STEREO_COUNT>
0

> <PUBCHEM_ATOM_UDEF_STEREO_COUNT>
0

> <PUBCHEM_BOND_DEF_STEREO_COUNT>
0

> <PUBCHEM_BOND_UDEF_STEREO_COUNT>
0

> <PUBCHEM_ISOTOPIC_ATOM_COUNT>
0

> <PUBCHEM_COMPONENT_COUNT>
1

> <PUBCHEM_CACTVS_TAUTO_COUNT>
-1

> <PUBCHEM_CONFORMER_ID>
0812047100000001

> <PUBCHEM_MMFF94_ENERGY>
29.43

> <PUBCHEM_FEATURE_SELFOVERLAP>
45.853

> <PUBCHEM_SHAPE_FINGERPRINT>
10219947 1 18411410739344033988
10493431 412 18125431167053967688
10967382 1 18339348739017774606
10980938 120 18413102874812003478
11067466 332 18334020488431615822
11132069 177 18337094769992351614
11471102 22 18409168822424059665
11680986 33 17980183202643706596
11796584 16 16298650708094699739
12251169 10 18341895229564822111
12390115 104 17766844201471685096
12892183 10 18272658935230014161
13296908 3 18261952938691144151
14115302 16 14273738481971489801
14178342 30 18199175360077975515
14252887 29 18335422352682243667
14790565 3 18120941869588844364
15219456 202 18335691707308730805
15422964 175 18335421205899595311
15475509 84 17700982032811307177
15501101 241 18334858329082041429
15527383 91 18200041620600539931
16945 1 18269533032061870740
18915474 69 13045947940858454145
20279233 1 18113612400781812271
20645477 70 18266442257731902743
20724930 14 18410288107933696894
20767249 442 14476965562835260553
20871998 22 18338238150300077079
21197605 99 17903929099599963299
21427221 339 17773897315133690041
221490 88 18193835942867068782
22224240 67 18270109253057801586
2255824 54 18264495168330447533
23402539 116 10953999478189218368
23557571 272 17314215683730867444
23559900 14 17900526896842207974
2748010 2 18052517908113932524
33824 294 18409160026283934903
3421961 26 18339646616232430699
458136 41 18412828010301599214
568465 68 18338517559397544585
7097593 13 18271253746474219273
81228 2 17189800261069952292

> <PUBCHEM_SHAPE_MULTIPOLES>
286.76
7.26
2.38
0.98
8.87
0.89
0.14
1.71
3.1
-2.07
-0.24
0.76
-0.09
0.53

> <PUBCHEM_SHAPE_SELFOVERLAP>
608.082

> <PUBCHEM_SHAPE_VOLUME>
159.7

> <PUBCHEM_COORDINATE_TYPE>
2
5
10

$$$$
