5310993
  -OEChem-09252020473D

 17 17  0     0  0  0  0  0  0999 V2000
    2.1652    1.8011    0.0000 O   0  5  0  0  0  0  0  0  0  0  0  0
   -2.9978   -1.0033   -0.0007 O   0  0  0  0  0  0  0  0  0  0  0  0
   -2.8699    1.2661    0.0004 O   0  0  0  0  0  0  0  0  0  0  0  0
    1.3554    0.8177   -0.0004 N   0  3  0  0  0  0  0  0  0  0  0  0
   -0.4489   -1.3210    0.0003 N   0  0  0  0  0  0  0  0  0  0  0  0
    1.8066   -0.4822   -0.0004 C   0  0  0  0  0  0  0  0  0  0  0  0
   -0.0020    1.0434   -0.0001 C   0  0  0  0  0  0  0  0  0  0  0  0
   -0.8643   -0.0385    0.0001 C   0  0  0  0  0  0  0  0  0  0  0  0
    0.8852   -1.5145    0.0002 C   0  0  0  0  0  0  0  0  0  0  0  0
    3.2715   -0.7363    0.0004 C   0  0  0  0  0  0  0  0  0  0  0  0
   -2.3011    0.1676    0.0004 C   0  0  0  0  0  0  0  0  0  0  0  0
   -0.2945    2.0823   -0.0001 H   0  0  0  0  0  0  0  0  0  0  0  0
    1.1951   -2.5542    0.0007 H   0  0  0  0  0  0  0  0  0  0  0  0
    3.4948   -1.8084   -0.0074 H   0  0  0  0  0  0  0  0  0  0  0  0
    3.7357   -0.2943   -0.8871 H   0  0  0  0  0  0  0  0  0  0  0  0
    3.7320   -0.3074    0.8960 H   0  0  0  0  0  0  0  0  0  0  0  0
   -3.9669   -0.8508   -0.0011 H   0  0  0  0  0  0  0  0  0  0  0  0
  1  4  1  0  0  0  0
  2 11  1  0  0  0  0
  2 17  1  0  0  0  0
  3 11  2  0  0  0  0
  4  6  1  0  0  0  0
  4  7  2  0  0  0  0
  5  8  2  0  0  0  0
  5  9  1  0  0  0  0
  6  9  2  0  0  0  0
  6 10  1  0  0  0  0
  7  8  1  0  0  0  0
  7 12  1  0  0  0  0
  8 11  1  0  0  0  0
  9 13  1  0  0  0  0
 10 14  1  0  0  0  0
 10 15  1  0  0  0  0
 10 16  1  0  0  0  0
M  CHG  2   1  -1   4   1
M  END
> <PUBCHEM_COMPOUND_CID>
5310993

> <PUBCHEM_CONFORMER_RMSD>
0.4

> <PUBCHEM_CONFORMER_DIVERSEORDER>
1
2

> <PUBCHEM_MMFF94_PARTIAL_CHARGES>
14
1 -0.75
10 0.14
11 0.63
12 0.15
13 0.15
17 0.5
2 -0.65
3 -0.57
4 0.57
5 -0.62
6 -0.05
7 -0.06
8 0.4
9 0.16

> <PUBCHEM_EFFECTIVE_ROTOR_COUNT>
1

> <PUBCHEM_PHARMACOPHORE_FEATURES>
6
1 1 anion
1 2 acceptor
1 3 acceptor
1 5 acceptor
3 2 3 11 anion
6 4 5 6 7 8 9 rings

> <PUBCHEM_HEAVY_ATOM_COUNT>
11

> <PUBCHEM_ATOM_DEF_STEREO_COUNT>
0

> <PUBCHEM_ATOM_UDEF_STEREO_COUNT>
0

> <PUBCHEM_BOND_DEF_STEREO_COUNT>
0

> <PUBCHEM_BOND_UDEF_STEREO_COUNT>
0

> <PUBCHEM_ISOTOPIC_ATOM_COUNT>
0

> <PUBCHEM_COMPONENT_COUNT>
1

> <PUBCHEM_CACTVS_TAUTO_COUNT>
1

> <PUBCHEM_CONFORMER_ID>
00510A1100000001

> <PUBCHEM_MMFF94_ENERGY>
27.299

> <PUBCHEM_FEATURE_SELFOVERLAP>
30.517

> <PUBCHEM_SHAPE_FINGERPRINT>
12032990 46 18340212886427511454
12897270 3 18409445873626575559
12932764 1 17458620086541022475
13380535 76 18194116545986056082
14325111 11 18410855485950888481
16945 1 18338516322394091943
193761 8 17906452486905144486
19973954 147 18410294713778053297
20201158 50 18337670810979827807
21040471 1 18266459986992610784
23402655 69 18124016954893767869
23552423 10 18335139799621249215
2748010 2 18338236071514676820
29004967 10 18337112263235944778
5084963 1 18272651255221833691
528886 8 18339355258456285531

> <PUBCHEM_SHAPE_MULTIPOLES>
198.8
4.51
1.62
0.57
0.75
0.22
0
-0.05
0
-0.31
0
-0.03
-0.02
0

> <PUBCHEM_SHAPE_SELFOVERLAP>
415.105

> <PUBCHEM_SHAPE_VOLUME>
112.4

> <PUBCHEM_COORDINATE_TYPE>
2
5
10

$$$$
