55756
  -OEChem-09252020473D

 50 52  0     0  0  0  0  0  0999 V2000
   -5.5813    2.1350    0.3292 O   0  0  0  0  0  0  0  0  0  0  0  0
   -6.6317    0.1238    0.5666 O   0  0  0  0  0  0  0  0  0  0  0  0
    1.1353    2.9645   -0.7454 N   0  0  0  0  0  0  0  0  0  0  0  0
   -1.6937   -0.8800   -0.1988 N   0  0  0  0  0  0  0  0  0  0  0  0
    2.1217    4.0169   -0.9875 C   0  0  0  0  0  0  0  0  0  0  0  0
    1.0695    2.8331    0.7098 C   0  0  0  0  0  0  0  0  0  0  0  0
    1.7749    5.0573    0.0672 C   0  0  0  0  0  0  0  0  0  0  0  0
    1.0866    4.2789    1.1841 C   0  0  0  0  0  0  0  0  0  0  0  0
    1.4856    1.7132   -1.4010 C   0  0  0  0  0  0  0  0  0  0  0  0
    0.4537    0.6515   -1.1341 C   0  0  0  0  0  0  0  0  0  0  0  0
    0.6359   -0.5624   -0.5680 C   0  0  0  0  0  0  0  0  0  0  0  0
    2.0139   -0.9251   -0.1450 C   0  0  0  0  0  0  0  0  0  0  0  0
   -0.5094   -1.4811   -0.3818 C   0  0  0  0  0  0  0  0  0  0  0  0
    2.8391   -1.5674   -1.0443 C   0  0  0  0  0  0  0  0  0  0  0  0
    2.4228   -0.6078    1.1335 C   0  0  0  0  0  0  0  0  0  0  0  0
   -0.2879   -2.8357   -0.4085 C   0  0  0  0  0  0  0  0  0  0  0  0
    4.1321   -1.9081   -0.6472 C   0  0  0  0  0  0  0  0  0  0  0  0
    3.7159   -0.9483    1.5306 C   0  0  0  0  0  0  0  0  0  0  0  0
    4.5705   -1.5986    0.6403 C   0  0  0  0  0  0  0  0  0  0  0  0
   -2.7454   -1.7121   -0.0281 C   0  0  0  0  0  0  0  0  0  0  0  0
   -1.3940   -3.6590   -0.2294 C   0  0  0  0  0  0  0  0  0  0  0  0
   -2.6498   -3.0943   -0.0350 C   0  0  0  0  0  0  0  0  0  0  0  0
    5.9532   -1.9621    1.0650 C   0  0  0  0  0  0  0  0  0  0  0  0
   -4.0367   -1.0743    0.1718 C   0  0  0  0  0  0  0  0  0  0  0  0
   -4.2577    0.2592    0.1757 C   0  0  0  0  0  0  0  0  0  0  0  0
   -5.6231    0.7831    0.3802 C   0  0  0  0  0  0  0  0  0  0  0  0
    2.0474    4.4281   -1.9990 H   0  0  0  0  0  0  0  0  0  0  0  0
    3.1475    3.6595   -0.8297 H   0  0  0  0  0  0  0  0  0  0  0  0
    1.9490    2.3156    1.1117 H   0  0  0  0  0  0  0  0  0  0  0  0
    0.1665    2.3204    1.0560 H   0  0  0  0  0  0  0  0  0  0  0  0
    1.0878    5.8091   -0.3386 H   0  0  0  0  0  0  0  0  0  0  0  0
    2.6682    5.5781    0.4267 H   0  0  0  0  0  0  0  0  0  0  0  0
    1.6160    4.3830    2.1366 H   0  0  0  0  0  0  0  0  0  0  0  0
    0.0664    4.6554    1.3234 H   0  0  0  0  0  0  0  0  0  0  0  0
    2.4966    1.3988   -1.1212 H   0  0  0  0  0  0  0  0  0  0  0  0
    1.5066    1.8748   -2.4863 H   0  0  0  0  0  0  0  0  0  0  0  0
   -0.5449    0.9287   -1.4739 H   0  0  0  0  0  0  0  0  0  0  0  0
    2.5094   -1.8111   -2.0504 H   0  0  0  0  0  0  0  0  0  0  0  0
    1.7635   -0.1081    1.8374 H   0  0  0  0  0  0  0  0  0  0  0  0
    0.6822   -3.2905   -0.5658 H   0  0  0  0  0  0  0  0  0  0  0  0
    4.7893   -2.4123   -1.3507 H   0  0  0  0  0  0  0  0  0  0  0  0
    4.0459   -0.7012    2.5361 H   0  0  0  0  0  0  0  0  0  0  0  0
   -1.2782   -4.7386   -0.2430 H   0  0  0  0  0  0  0  0  0  0  0  0
   -3.5148   -3.7346    0.1046 H   0  0  0  0  0  0  0  0  0  0  0  0
    6.3003   -2.8647    0.5505 H   0  0  0  0  0  0  0  0  0  0  0  0
    6.6429   -1.1428    0.8396 H   0  0  0  0  0  0  0  0  0  0  0  0
    5.9945   -2.1705    2.1395 H   0  0  0  0  0  0  0  0  0  0  0  0
   -4.8763   -1.7496    0.3229 H   0  0  0  0  0  0  0  0  0  0  0  0
   -3.4581    0.9777    0.0272 H   0  0  0  0  0  0  0  0  0  0  0  0
   -6.4674    2.5351    0.4605 H   0  0  0  0  0  0  0  0  0  0  0  0
  1 26  1  0  0  0  0
  1 50  1  0  0  0  0
  2 26  2  0  0  0  0
  3  5  1  0  0  0  0
  3  6  1  0  0  0  0
  3  9  1  0  0  0  0
  4 13  1  0  0  0  0
  4 20  2  0  0  0  0
  5  7  1  0  0  0  0
  5 27  1  0  0  0  0
  5 28  1  0  0  0  0
  6  8  1  0  0  0  0
  6 29  1  0  0  0  0
  6 30  1  0  0  0  0
  7  8  1  0  0  0  0
  7 31  1  0  0  0  0
  7 32  1  0  0  0  0
  8 33  1  0  0  0  0
  8 34  1  0  0  0  0
  9 10  1  0  0  0  0
  9 35  1  0  0  0  0
  9 36  1  0  0  0  0
 10 11  2  3  0  0  0
 10 37  1  0  0  0  0
 11 12  1  0  0  0  0
 11 13  1  0  0  0  0
 12 14  2  0  0  0  0
 12 15  1  0  0  0  0
 13 16  2  0  0  0  0
 14 17  1  0  0  0  0
 14 38  1  0  0  0  0
 15 18  2  0  0  0  0
 15 39  1  0  0  0  0
 16 21  1  0  0  0  0
 16 40  1  0  0  0  0
 17 19  2  0  0  0  0
 17 41  1  0  0  0  0
 18 19  1  0  0  0  0
 18 42  1  0  0  0  0
 19 23  1  0  0  0  0
 20 22  1  0  0  0  0
 20 24  1  0  0  0  0
 21 22  2  0  0  0  0
 21 43  1  0  0  0  0
 22 44  1  0  0  0  0
 23 45  1  0  0  0  0
 23 46  1  0  0  0  0
 23 47  1  0  0  0  0
 24 25  2  3  0  0  0
 24 48  1  0  0  0  0
 25 26  1  0  0  0  0
 25 49  1  0  0  0  0
M  END
> <PUBCHEM_COMPOUND_CID>
55756

> <PUBCHEM_CONFORMER_RMSD>
0.8

> <PUBCHEM_CONFORMER_DIVERSEORDER>
1
6
20
47
23
46
36
50
10
24
32
19
25
21
38
8
17
40
39
51
44
5
42
49
18
26
16
27
28
34
15
43
12
11
4
48
13
9
35
31
33
45
29
3
2
41
7
22
30
37
14

> <PUBCHEM_MMFF94_PARTIAL_CHARGES>
35
1 -0.65
10 -0.29
11 -0.06
12 0.03
13 0.34
14 -0.15
15 -0.15
16 -0.15
17 -0.15
18 -0.15
19 -0.14
2 -0.57
20 0.34
21 -0.15
22 -0.15
23 0.14
24 -0.18
25 -0.14
26 0.71
3 -0.81
37 0.15
38 0.15
39 0.15
4 -0.62
40 0.15
41 0.15
42 0.15
43 0.15
44 0.15
48 0.15
49 0.15
5 0.27
50 0.5
6 0.27
9 0.41

> <PUBCHEM_EFFECTIVE_ROTOR_COUNT>
7

> <PUBCHEM_PHARMACOPHORE_FEATURES>
8
1 1 acceptor
1 2 acceptor
1 3 cation
1 4 acceptor
3 1 2 26 anion
5 3 5 6 7 8 rings
6 12 14 15 17 18 19 rings
6 4 13 16 20 21 22 rings

> <PUBCHEM_HEAVY_ATOM_COUNT>
26

> <PUBCHEM_ATOM_DEF_STEREO_COUNT>
0

> <PUBCHEM_ATOM_UDEF_STEREO_COUNT>
0

> <PUBCHEM_BOND_DEF_STEREO_COUNT>
0

> <PUBCHEM_BOND_UDEF_STEREO_COUNT>
2

> <PUBCHEM_ISOTOPIC_ATOM_COUNT>
0

> <PUBCHEM_COMPONENT_COUNT>
1

> <PUBCHEM_CACTVS_TAUTO_COUNT>
1

> <PUBCHEM_CONFORMER_ID>
0000D9CC00000001

> <PUBCHEM_MMFF94_ENERGY>
71.2233

> <PUBCHEM_FEATURE_SELFOVERLAP>
40.652

> <PUBCHEM_SHAPE_FINGERPRINT>
10006869 2 17906440031563504095
1100329 8 18410294722320443707
11646440 116 18200602402091239011
12166972 35 18344146982239433915
12403260 363 18341324609022018983
12422481 6 18123156217582900624
12549972 3 17677912303444083561
12633257 1 18408603656526262671
12788726 201 18189629250418934310
13004483 165 18263917757622898458
13140716 1 18262801886427943703
13878862 14 18262780974553946725
14022347 108 18337964380948941278
14466204 15 18265615390606587577
14739800 52 17911515716471195401
14849402 71 18336836389303257117
14955137 171 18335989683534384091
15081414 286 18197510532349502439
15238133 3 18115316578884769239
15295992 7 18114474439336129499
15420108 30 17985253330285567044
1601671 61 18335422305490779551
17974551 9 18115033029570749451
17980427 23 18131057281620922550
17980427 26 17907852152623531076
20600515 1 18342739594275890566
20642791 178 18045783657382336604
21033648 29 17774987008066203842
21304253 13 18411976958258106472
21521721 280 8790299176009344455
23366157 5 17971752435286888182
23558518 356 18194674002418758883
23559900 14 18201449119895830710
3178227 256 18336561430250344731
345986 75 17606382277535524186
3493558 16 18060414750937971880
3737641 26 8646497370670049197
4409770 3 17899675891847858870
469060 322 18123199999820132664
5104073 3 18263094369796172891
5895379 119 17773338788902131497
6371009 1 18412538791973886769
6442390 28 17404024726186713808
79837 15 17255949084331962906
84936 182 17907866445926070276
9777508 108 17186722715033293344
9981440 41 17399511720005653970

> <PUBCHEM_SHAPE_MULTIPOLES>
513.37
10.92
6
1.18
12.64
8.17
-0.04
-3.19
-3.83
-3.59
0
-1.14
0.31
-1.12

> <PUBCHEM_SHAPE_SELFOVERLAP>
1096.71

> <PUBCHEM_SHAPE_VOLUME>
285.8

> <PUBCHEM_COORDINATE_TYPE>
2
5
10

$$$$
