60871
  -OEChem-09252020473D

 66 67  0     0  0  0  0  0  0999 V2000
    0.6845   -2.9738   -0.1974 P   0  0  0  0  0  0  0  0  0  0  0  0
    0.3974   -1.0008    1.4074 O   0  0  0  0  0  0  0  0  0  0  0  0
    4.0307   -1.2187   -0.9453 O   0  0  0  0  0  0  0  0  0  0  0  0
   -3.0453   -2.3344   -0.9129 O   0  0  0  0  0  0  0  0  0  0  0  0
    1.8118   -2.0398   -0.8878 O   0  0  0  0  0  0  0  0  0  0  0  0
   -0.6818   -2.4329   -0.8760 O   0  0  0  0  0  0  0  0  0  0  0  0
    3.6567   -0.4144    1.1782 O   0  0  0  0  0  0  0  0  0  0  0  0
   -2.8575   -1.3781    1.1720 O   0  0  0  0  0  0  0  0  0  0  0  0
    0.9164   -4.4497   -0.3467 O   0  0  0  0  0  0  0  0  0  0  0  0
   -0.3795    1.7807    1.7486 N   0  0  0  0  0  0  0  0  0  0  0  0
   -2.2260    2.8990    1.1920 N   0  0  0  0  0  0  0  0  0  0  0  0
    0.6740    1.6033   -0.4328 N   0  0  0  0  0  0  0  0  0  0  0  0
   -0.6811    2.6682   -2.1608 N   0  0  0  0  0  0  0  0  0  0  0  0
   -2.7705    3.7320   -1.6811 N   0  0  0  0  0  0  0  0  0  0  0  0
    5.1023    0.8252   -0.3522 C   0  0  0  0  0  0  0  0  0  0  0  0
   -4.6583   -0.6819   -0.3248 C   0  0  0  0  0  0  0  0  0  0  0  0
    4.4910    1.5473   -1.5638 C   0  0  0  0  0  0  0  0  0  0  0  0
    5.2485    1.8259    0.8019 C   0  0  0  0  0  0  0  0  0  0  0  0
    6.4726    0.2593   -0.7478 C   0  0  0  0  0  0  0  0  0  0  0  0
   -5.8194   -1.6363   -0.6339 C   0  0  0  0  0  0  0  0  0  0  0  0
   -5.0728    0.2507    0.8249 C   0  0  0  0  0  0  0  0  0  0  0  0
   -4.3184    0.1655   -1.5578 C   0  0  0  0  0  0  0  0  0  0  0  0
    4.1829   -0.3229    0.0756 C   0  0  0  0  0  0  0  0  0  0  0  0
   -3.4242   -1.4884    0.0915 C   0  0  0  0  0  0  0  0  0  0  0  0
    0.5985    1.0886    2.5852 C   0  0  0  0  0  0  0  0  0  0  0  0
    0.3203   -0.4046    2.6942 C   0  0  0  0  0  0  0  0  0  0  0  0
    0.6014   -2.4050    1.4919 C   0  0  0  0  0  0  0  0  0  0  0  0
   -0.3041    1.9879    0.4008 C   0  0  0  0  0  0  0  0  0  0  0  0
    3.1825   -2.3472   -0.6801 C   0  0  0  0  0  0  0  0  0  0  0  0
   -1.8893   -3.1475   -0.6571 C   0  0  0  0  0  0  0  0  0  0  0  0
   -1.4579    2.6831    0.0755 C   0  0  0  0  0  0  0  0  0  0  0  0
   -1.5514    2.3452    2.1779 C   0  0  0  0  0  0  0  0  0  0  0  0
   -1.6301    3.0250   -1.2621 C   0  0  0  0  0  0  0  0  0  0  0  0
    0.3961    1.9896   -1.6971 C   0  0  0  0  0  0  0  0  0  0  0  0
    5.1172    2.3889   -1.8805 H   0  0  0  0  0  0  0  0  0  0  0  0
    4.3759    0.8778   -2.4235 H   0  0  0  0  0  0  0  0  0  0  0  0
    3.4982    1.9409   -1.3229 H   0  0  0  0  0  0  0  0  0  0  0  0
    5.8969    2.6635    0.5219 H   0  0  0  0  0  0  0  0  0  0  0  0
    4.2767    2.2382    1.0976 H   0  0  0  0  0  0  0  0  0  0  0  0
    5.6845    1.3479    1.6869 H   0  0  0  0  0  0  0  0  0  0  0  0
    6.4040   -0.4109   -1.6121 H   0  0  0  0  0  0  0  0  0  0  0  0
    6.9098   -0.3167    0.0759 H   0  0  0  0  0  0  0  0  0  0  0  0
    7.1726    1.0617   -1.0058 H   0  0  0  0  0  0  0  0  0  0  0  0
   -6.7329   -1.0832   -0.8789 H   0  0  0  0  0  0  0  0  0  0  0  0
   -6.0350   -2.2841    0.2236 H   0  0  0  0  0  0  0  0  0  0  0  0
   -5.5909   -2.2893   -1.4838 H   0  0  0  0  0  0  0  0  0  0  0  0
   -5.9543    0.8443    0.5581 H   0  0  0  0  0  0  0  0  0  0  0  0
   -5.3140   -0.3182    1.7303 H   0  0  0  0  0  0  0  0  0  0  0  0
   -4.2676    0.9464    1.0822 H   0  0  0  0  0  0  0  0  0  0  0  0
   -5.1421    0.8385   -1.8197 H   0  0  0  0  0  0  0  0  0  0  0  0
   -3.4254    0.7702   -1.3804 H   0  0  0  0  0  0  0  0  0  0  0  0
   -4.1126   -0.4617   -2.4326 H   0  0  0  0  0  0  0  0  0  0  0  0
    1.5820    1.2737    2.1395 H   0  0  0  0  0  0  0  0  0  0  0  0
    0.5746    1.5623    3.5725 H   0  0  0  0  0  0  0  0  0  0  0  0
   -0.6772   -0.5891    3.1086 H   0  0  0  0  0  0  0  0  0  0  0  0
    1.0646   -0.8468    3.3670 H   0  0  0  0  0  0  0  0  0  0  0  0
   -0.2301   -2.8771    2.0236 H   0  0  0  0  0  0  0  0  0  0  0  0
    1.5394   -2.6243    2.0111 H   0  0  0  0  0  0  0  0  0  0  0  0
    3.4647   -3.1356   -1.3843 H   0  0  0  0  0  0  0  0  0  0  0  0
    3.3520   -2.7298    0.3328 H   0  0  0  0  0  0  0  0  0  0  0  0
   -1.9261   -3.5592    0.3579 H   0  0  0  0  0  0  0  0  0  0  0  0
   -1.9214   -3.9863   -1.3588 H   0  0  0  0  0  0  0  0  0  0  0  0
   -1.8601    2.3205    3.2141 H   0  0  0  0  0  0  0  0  0  0  0  0
    1.1338    1.7177   -2.4445 H   0  0  0  0  0  0  0  0  0  0  0  0
   -2.8742    3.9666   -2.6589 H   0  0  0  0  0  0  0  0  0  0  0  0
   -3.4822    3.9952   -1.0130 H   0  0  0  0  0  0  0  0  0  0  0  0
  1  5  1  0  0  0  0
  1  6  1  0  0  0  0
  1  9  2  0  0  0  0
  1 27  1  0  0  0  0
  2 26  1  0  0  0  0
  2 27  1  0  0  0  0
  3 23  1  0  0  0  0
  3 29  1  0  0  0  0
  4 24  1  0  0  0  0
  4 30  1  0  0  0  0
  5 29  1  0  0  0  0
  6 30  1  0  0  0  0
  7 23  2  0  0  0  0
  8 24  2  0  0  0  0
 10 25  1  0  0  0  0
 10 28  1  0  0  0  0
 10 32  1  0  0  0  0
 11 31  1  0  0  0  0
 11 32  2  0  0  0  0
 12 28  2  0  0  0  0
 12 34  1  0  0  0  0
 13 33  1  0  0  0  0
 13 34  2  0  0  0  0
 14 33  1  0  0  0  0
 14 65  1  0  0  0  0
 14 66  1  0  0  0  0
 15 17  1  0  0  0  0
 15 18  1  0  0  0  0
 15 19  1  0  0  0  0
 15 23  1  0  0  0  0
 16 20  1  0  0  0  0
 16 21  1  0  0  0  0
 16 22  1  0  0  0  0
 16 24  1  0  0  0  0
 17 35  1  0  0  0  0
 17 36  1  0  0  0  0
 17 37  1  0  0  0  0
 18 38  1  0  0  0  0
 18 39  1  0  0  0  0
 18 40  1  0  0  0  0
 19 41  1  0  0  0  0
 19 42  1  0  0  0  0
 19 43  1  0  0  0  0
 20 44  1  0  0  0  0
 20 45  1  0  0  0  0
 20 46  1  0  0  0  0
 21 47  1  0  0  0  0
 21 48  1  0  0  0  0
 21 49  1  0  0  0  0
 22 50  1  0  0  0  0
 22 51  1  0  0  0  0
 22 52  1  0  0  0  0
 25 26  1  0  0  0  0
 25 53  1  0  0  0  0
 25 54  1  0  0  0  0
 26 55  1  0  0  0  0
 26 56  1  0  0  0  0
 27 57  1  0  0  0  0
 27 58  1  0  0  0  0
 28 31  1  0  0  0  0
 29 59  1  0  0  0  0
 29 60  1  0  0  0  0
 30 61  1  0  0  0  0
 30 62  1  0  0  0  0
 31 33  2  0  0  0  0
 32 63  1  0  0  0  0
 34 64  1  0  0  0  0
M  END
> <PUBCHEM_COMPOUND_CID>
60871

> <PUBCHEM_CONFORMER_RMSD>
1.2

> <PUBCHEM_CONFORMER_DIVERSEORDER>
1
109
79
113
141
48
30
121
108
185
4
161
112
150
137
134
95
80
3
136
74
57
51
138
131
16
177
159
122
169
180
21
105
148
84
86
76
20
45
135
129
101
50
186
54
5
87
7
90
140
61
133
19
155
132
139
55
184
18
124
23
162
173
98
104
106
67
10
183
71
14
160
151
179
158
123
88
174
77
70
78
170
99
41
164
92
152
56
28
37
25
91
182
117
143
168
144
24
97
35
64
63
38
125
60
8
130
52
81
66
26
128
120
165
171
146
145
114
153
59
32
13
127
72
126
36
119
58
102
44
167
49
2
93
175
83
89
166
156
62
73
172
157
187
110
94
65
178
107
43
27
33
75
188
142
22
115
111
40
154
116
46
69
147
39
82
118
103
181
85
42
31
12
149
15
176
163
17
53
34
100
96
9
11
47
29
68
6

> <PUBCHEM_MMFF94_PARTIAL_CHARGES>
32
1 1.24
10 0.05
11 -0.57
12 -0.57
13 -0.62
14 -0.9
15 0.06
16 0.06
2 -0.56
23 0.66
24 0.66
25 0.26
26 0.28
27 0.28
28 0.11
29 0.56
3 -0.43
30 0.56
31 0.23
32 0.04
33 0.41
34 0.47
4 -0.43
5 -0.55
6 -0.55
63 0.15
64 0.15
65 0.4
66 0.4
7 -0.57
8 -0.57
9 -0.7

> <PUBCHEM_EFFECTIVE_ROTOR_COUNT>
15

> <PUBCHEM_PHARMACOPHORE_FEATURES>
13
1 14 cation
1 14 donor
1 2 acceptor
1 7 acceptor
1 8 acceptor
1 9 acceptor
3 10 11 32 cation
3 10 12 28 cation
3 12 13 34 cation
4 15 17 18 19 hydrophobe
4 16 20 21 22 hydrophobe
5 10 11 28 31 32 rings
6 12 13 28 31 33 34 rings

> <PUBCHEM_HEAVY_ATOM_COUNT>
34

> <PUBCHEM_ATOM_DEF_STEREO_COUNT>
0

> <PUBCHEM_ATOM_UDEF_STEREO_COUNT>
0

> <PUBCHEM_BOND_DEF_STEREO_COUNT>
0

> <PUBCHEM_BOND_UDEF_STEREO_COUNT>
0

> <PUBCHEM_ISOTOPIC_ATOM_COUNT>
0

> <PUBCHEM_COMPONENT_COUNT>
1

> <PUBCHEM_CACTVS_TAUTO_COUNT>
3

> <PUBCHEM_CONFORMER_ID>
0000EDC700000001

> <PUBCHEM_MMFF94_ENERGY>
60.0721

> <PUBCHEM_FEATURE_SELFOVERLAP>
66.576

> <PUBCHEM_SHAPE_FINGERPRINT>
11513181 2 16980378965608327071
11582403 64 16809252771009913820
12156800 1 17903031751691425760
12422481 6 18048351922812195569
12788726 201 18334009506263621416
131258 38 12101832477137040621
13947920 24 18411132554681465616
14394314 77 18200887218653278457
14840074 17 18335151894397016889
161222 619 17270282682736283096
19958102 18 18341621399967956974
20429585 67 18408606950576189817
20764821 26 17769352956240709395
21304304 249 9223239563010365091
238 59 17759526569515470564
3027735 51 18341905082067058734
469060 322 18041572363921350525
50150288 127 16772403811589139971
508706 21 18115611274429946454

> <PUBCHEM_SHAPE_MULTIPOLES>
631.69
10.84
4.82
2.18
6.38
0.89
-0.99
0.6
3.27
-1.94
1.3
-0.23
-1.28
-0.07

> <PUBCHEM_SHAPE_SELFOVERLAP>
1278.665

> <PUBCHEM_SHAPE_VOLUME>
373.3

> <PUBCHEM_COORDINATE_TYPE>
2
5
10

$$$$
