54766
  -OEChem-09252020493D

 55 55  0     1  0  0  0  0  0999 V2000
    2.4307    1.0571    2.5096 O   0  0  0  0  0  0  0  0  0  0  0  0
   -0.7854   -2.6944    0.8853 O   0  0  0  0  0  0  0  0  0  0  0  0
   -2.9963    1.5339    0.7414 O   0  0  0  0  0  0  0  0  0  0  0  0
   -0.5457   -2.5992   -1.4142 O   0  0  0  0  0  0  0  0  0  0  0  0
   -2.7165    1.5522   -1.5554 O   0  0  0  0  0  0  0  0  0  0  0  0
    4.1254    1.6991    0.2737 N   0  0  0  0  0  0  0  0  0  0  0  0
   -0.7375   -4.6774   -0.3876 N   0  0  0  0  0  0  0  0  0  0  0  0
   -4.5600    2.6330   -0.6375 N   0  0  0  0  0  0  0  0  0  0  0  0
    5.0463    1.3257   -0.8049 C   0  0  0  0  0  0  0  0  0  0  0  0
    2.8517    1.0177    0.1167 C   0  0  0  0  0  0  0  0  0  0  0  0
    1.8825    1.4072    1.2395 C   0  0  1  0  0  0  0  0  0  0  0  0
    4.4374    1.7242   -2.1544 C   0  0  0  0  0  0  0  0  0  0  0  0
    5.2686   -0.1895   -0.7542 C   0  0  0  0  0  0  0  0  0  0  0  0
    6.3742    2.0595   -0.5893 C   0  0  0  0  0  0  0  0  0  0  0  0
    0.5504    0.7056    1.0899 C   0  0  0  0  0  0  0  0  0  0  0  0
   -0.6231    1.4521    0.9842 C   0  0  0  0  0  0  0  0  0  0  0  0
    0.4960   -0.6878    1.0565 C   0  0  0  0  0  0  0  0  0  0  0  0
   -0.7319   -1.3346    0.9171 C   0  0  0  0  0  0  0  0  0  0  0  0
   -1.8510    0.8054    0.8449 C   0  0  0  0  0  0  0  0  0  0  0  0
   -1.9054   -0.5880    0.8113 C   0  0  0  0  0  0  0  0  0  0  0  0
   -0.6783   -3.2793   -0.3973 C   0  0  0  0  0  0  0  0  0  0  0  0
   -3.3789    1.8854   -0.5735 C   0  0  0  0  0  0  0  0  0  0  0  0
   -0.6408   -5.4225   -1.6347 C   0  0  0  0  0  0  0  0  0  0  0  0
   -0.8914   -5.4751    0.8246 C   0  0  0  0  0  0  0  0  0  0  0  0
   -5.0809    3.0694   -1.9251 C   0  0  0  0  0  0  0  0  0  0  0  0
   -5.3403    3.0201    0.5333 C   0  0  0  0  0  0  0  0  0  0  0  0
    3.9779    2.7082    0.2721 H   0  0  0  0  0  0  0  0  0  0  0  0
    2.9942   -0.0639    0.1701 H   0  0  0  0  0  0  0  0  0  0  0  0
    2.3569    1.2590   -0.8293 H   0  0  0  0  0  0  0  0  0  0  0  0
    1.7328    2.4942    1.2400 H   0  0  0  0  0  0  0  0  0  0  0  0
    3.6120    1.0783   -2.4713 H   0  0  0  0  0  0  0  0  0  0  0  0
    4.0848    2.7625   -2.1505 H   0  0  0  0  0  0  0  0  0  0  0  0
    5.1940    1.6502   -2.9457 H   0  0  0  0  0  0  0  0  0  0  0  0
    4.4230   -0.7716   -1.1357 H   0  0  0  0  0  0  0  0  0  0  0  0
    5.5016   -0.5334    0.2608 H   0  0  0  0  0  0  0  0  0  0  0  0
    6.1243   -0.4653   -1.3835 H   0  0  0  0  0  0  0  0  0  0  0  0
    6.2385    3.1472   -0.6121 H   0  0  0  0  0  0  0  0  0  0  0  0
    6.8211    1.7991    0.3775 H   0  0  0  0  0  0  0  0  0  0  0  0
    7.1006    1.8018   -1.3686 H   0  0  0  0  0  0  0  0  0  0  0  0
   -0.5896    2.5385    1.0095 H   0  0  0  0  0  0  0  0  0  0  0  0
    1.3983   -1.2855    1.1545 H   0  0  0  0  0  0  0  0  0  0  0  0
    3.3029    1.4821    2.5762 H   0  0  0  0  0  0  0  0  0  0  0  0
   -2.8626   -1.0922    0.7039 H   0  0  0  0  0  0  0  0  0  0  0  0
    0.2274   -6.0856   -1.5821 H   0  0  0  0  0  0  0  0  0  0  0  0
   -0.5290   -4.7581   -2.4950 H   0  0  0  0  0  0  0  0  0  0  0  0
   -1.5498   -6.0178   -1.7606 H   0  0  0  0  0  0  0  0  0  0  0  0
   -1.8041   -6.0716    0.7371 H   0  0  0  0  0  0  0  0  0  0  0  0
   -0.9585   -4.8563    1.7213 H   0  0  0  0  0  0  0  0  0  0  0  0
   -0.0278   -6.1400    0.9173 H   0  0  0  0  0  0  0  0  0  0  0  0
   -6.0815    2.6489   -2.0608 H   0  0  0  0  0  0  0  0  0  0  0  0
   -4.4433    2.7433   -2.7506 H   0  0  0  0  0  0  0  0  0  0  0  0
   -5.1383    4.1617   -1.9300 H   0  0  0  0  0  0  0  0  0  0  0  0
   -5.4023    4.1117    0.5668 H   0  0  0  0  0  0  0  0  0  0  0  0
   -4.8952    2.6628    1.4639 H   0  0  0  0  0  0  0  0  0  0  0  0
   -6.3458    2.5999    0.4377 H   0  0  0  0  0  0  0  0  0  0  0  0
  1 11  1  0  0  0  0
  1 42  1  0  0  0  0
  2 18  1  0  0  0  0
  2 21  1  0  0  0  0
  3 19  1  0  0  0  0
  3 22  1  0  0  0  0
  4 21  2  0  0  0  0
  5 22  2  0  0  0  0
  6  9  1  0  0  0  0
  6 10  1  0  0  0  0
  6 27  1  0  0  0  0
  7 21  1  0  0  0  0
  7 23  1  0  0  0  0
  7 24  1  0  0  0  0
  8 22  1  0  0  0  0
  8 25  1  0  0  0  0
  8 26  1  0  0  0  0
  9 12  1  0  0  0  0
  9 13  1  0  0  0  0
  9 14  1  0  0  0  0
 10 11  1  0  0  0  0
 10 28  1  0  0  0  0
 10 29  1  0  0  0  0
 11 15  1  0  0  0  0
 11 30  1  0  0  0  0
 12 31  1  0  0  0  0
 12 32  1  0  0  0  0
 12 33  1  0  0  0  0
 13 34  1  0  0  0  0
 13 35  1  0  0  0  0
 13 36  1  0  0  0  0
 14 37  1  0  0  0  0
 14 38  1  0  0  0  0
 14 39  1  0  0  0  0
 15 16  2  0  0  0  0
 15 17  1  0  0  0  0
 16 19  1  0  0  0  0
 16 40  1  0  0  0  0
 17 18  2  0  0  0  0
 17 41  1  0  0  0  0
 18 20  1  0  0  0  0
 19 20  2  0  0  0  0
 20 43  1  0  0  0  0
 23 44  1  0  0  0  0
 23 45  1  0  0  0  0
 23 46  1  0  0  0  0
 24 47  1  0  0  0  0
 24 48  1  0  0  0  0
 24 49  1  0  0  0  0
 25 50  1  0  0  0  0
 25 51  1  0  0  0  0
 25 52  1  0  0  0  0
 26 53  1  0  0  0  0
 26 54  1  0  0  0  0
 26 55  1  0  0  0  0
M  END
> <PUBCHEM_COMPOUND_CID>
54766

> <PUBCHEM_CONFORMER_RMSD>
1

> <PUBCHEM_CONFORMER_DIVERSEORDER>
1
11
8
7
6
9
23
12
26
24
25
17
21
16
10
20
22
19
4
15
18
14
13
5
2
3

> <PUBCHEM_MMFF94_PARTIAL_CHARGES>
28
1 -0.68
10 0.27
11 0.42
15 -0.14
16 -0.15
17 -0.15
18 0.08
19 0.08
2 -0.23
20 -0.15
21 0.78
22 0.78
23 0.3
24 0.3
25 0.3
26 0.3
27 0.36
3 -0.23
4 -0.57
40 0.15
41 0.15
42 0.4
43 0.15
5 -0.57
6 -0.9
7 -0.66
8 -0.66
9 0.27

> <PUBCHEM_EFFECTIVE_ROTOR_COUNT>
10

> <PUBCHEM_PHARMACOPHORE_FEATURES>
8
1 1 acceptor
1 1 donor
1 4 acceptor
1 5 acceptor
1 6 cation
1 6 donor
4 9 12 13 14 hydrophobe
6 15 16 17 18 19 20 rings

> <PUBCHEM_HEAVY_ATOM_COUNT>
26

> <PUBCHEM_ATOM_DEF_STEREO_COUNT>
0

> <PUBCHEM_ATOM_UDEF_STEREO_COUNT>
1

> <PUBCHEM_BOND_DEF_STEREO_COUNT>
0

> <PUBCHEM_BOND_UDEF_STEREO_COUNT>
0

> <PUBCHEM_ISOTOPIC_ATOM_COUNT>
0

> <PUBCHEM_COMPONENT_COUNT>
1

> <PUBCHEM_CACTVS_TAUTO_COUNT>
1

> <PUBCHEM_CONFORMER_ID>
0000D5EE00000001

> <PUBCHEM_MMFF94_ENERGY>
71.7083

> <PUBCHEM_FEATURE_SELFOVERLAP>
40.598

> <PUBCHEM_SHAPE_FINGERPRINT>
10369192 42 18334304136884116901
105312 117 18409171017131651916
10721379 63 17765724516118444077
107951 10 18343865519693892863
11488393 25 17757830026767548777
11809386 21 18193555795562721690
12788726 201 18045208590661542003
12895836 83 18261112993333592464
12895837 130 17751093598899420132
13257819 37 18408887356253516231
13690498 29 17908727346888612556
14114206 34 17683232930427024394
14251757 5 18194396929624836119
15163728 17 18262806155361867413
15475509 35 12174177065617554357
15664445 248 16609143252466775909
15878777 1 10230063610495297363
17539 30 18123748926668070818
17980427 23 12396589490593335733
1813 80 17330555861170986050
19958102 18 18412262873856565694
20602899 9 18272938214819203153
21365058 27 18341058454093010517
21756936 100 17240769527341584112
23366157 5 17833831573725826369
26353 1 17398661793138019631
3057174 1 18339355258609500471
3388396 114 16817730452748675244
4015057 19 16917067806566080600
44802255 64 18261405450836350988
563151 40 18343869922731878319
58260988 587 18193569861343232601
58779409 8 18340481270106059531
59025328 239 16406448223778009671
59755656 520 18130242513645698057
60123966 16 17394706399601609693
633830 44 16878231965341553160
6786 2 18409449154982135687
6898599 12 18265062503799198412

> <PUBCHEM_SHAPE_MULTIPOLES>
490.78
10.94
6.81
1.85
10.22
14.9
0.29
-17.22
5.33
-7.28
2.55
0.12
-0.36
0.67

> <PUBCHEM_SHAPE_SELFOVERLAP>
990.655

> <PUBCHEM_SHAPE_VOLUME>
287.6

> <PUBCHEM_COORDINATE_TYPE>
2
5
10

$$$$
