91640
  -OEChem-09252020493D

 61 63  0     1  0  0  0  0  0999 V2000
   -2.7504    0.4697    0.3838 O   0  0  0  0  0  0  0  0  0  0  0  0
    0.6667    3.2406   -0.1560 N   0  0  0  0  0  0  0  0  0  0  0  0
   -0.0802   -0.3690    0.1148 N   0  0  3  0  0  0  0  0  0  0  0  0
    0.7605    1.8888    0.3751 C   0  0  0  0  0  0  0  0  0  0  0  0
    1.4861    4.1929    0.5932 C   0  0  0  0  0  0  0  0  0  0  0  0
    1.1431    3.3328   -1.5357 C   0  0  0  0  0  0  0  0  0  0  0  0
   -0.4433    1.0294   -0.0314 C   0  0  2  0  0  0  0  0  0  0  0  0
    1.5478    5.3956   -0.3369 C   0  0  0  0  0  0  0  0  0  0  0  0
    1.3188    4.8309   -1.7356 C   0  0  0  0  0  0  0  0  0  0  0  0
   -1.6842    1.3068    0.8200 C   0  0  0  0  0  0  0  0  0  0  0  0
    0.2974   -0.8506    1.4401 C   0  0  0  0  0  0  0  0  0  0  0  0
   -0.0775   -1.2333   -0.9834 C   0  0  0  0  0  0  0  0  0  0  0  0
    1.7178   -1.3437    1.4370 C   0  0  0  0  0  0  0  0  0  0  0  0
   -3.9392    0.7171    1.1204 C   0  0  0  0  0  0  0  0  0  0  0  0
   -5.0559   -0.2115    0.6356 C   0  0  0  0  0  0  0  0  0  0  0  0
   -0.8913   -2.3663   -0.9816 C   0  0  0  0  0  0  0  0  0  0  0  0
    0.7396   -0.9633   -2.0813 C   0  0  0  0  0  0  0  0  0  0  0  0
    1.9916   -2.6794    1.1424 C   0  0  0  0  0  0  0  0  0  0  0  0
    2.7619   -0.4654    1.7279 C   0  0  0  0  0  0  0  0  0  0  0  0
   -4.6758   -1.6826    0.8175 C   0  0  0  0  0  0  0  0  0  0  0  0
   -6.3596    0.0945    1.3698 C   0  0  0  0  0  0  0  0  0  0  0  0
   -0.8878   -3.2293   -2.0774 C   0  0  0  0  0  0  0  0  0  0  0  0
    0.7428   -1.8263   -3.1771 C   0  0  0  0  0  0  0  0  0  0  0  0
   -0.0710   -2.9592   -3.1752 C   0  0  0  0  0  0  0  0  0  0  0  0
    3.3094   -3.1370    1.1392 C   0  0  0  0  0  0  0  0  0  0  0  0
    4.0795   -0.9231    1.7246 C   0  0  0  0  0  0  0  0  0  0  0  0
    4.3532   -2.2589    1.4301 C   0  0  0  0  0  0  0  0  0  0  0  0
    0.7969    1.9444    1.4703 H   0  0  0  0  0  0  0  0  0  0  0  0
    1.7011    1.4330    0.0451 H   0  0  0  0  0  0  0  0  0  0  0  0
   -0.7111    1.2204   -1.0790 H   0  0  0  0  0  0  0  0  0  0  0  0
    1.0404    4.4535    1.5583 H   0  0  0  0  0  0  0  0  0  0  0  0
    2.4985    3.8058    0.7673 H   0  0  0  0  0  0  0  0  0  0  0  0
    2.1097    2.8312   -1.6733 H   0  0  0  0  0  0  0  0  0  0  0  0
    0.4313    2.9185   -2.2560 H   0  0  0  0  0  0  0  0  0  0  0  0
    2.5097    5.9126   -0.2609 H   0  0  0  0  0  0  0  0  0  0  0  0
    0.7583    6.1167   -0.0945 H   0  0  0  0  0  0  0  0  0  0  0  0
    0.4154    5.2743   -2.1707 H   0  0  0  0  0  0  0  0  0  0  0  0
    2.1569    5.0517   -2.4043 H   0  0  0  0  0  0  0  0  0  0  0  0
   -1.5070    1.1454    1.8886 H   0  0  0  0  0  0  0  0  0  0  0  0
   -1.9822    2.3546    0.6900 H   0  0  0  0  0  0  0  0  0  0  0  0
   -0.3786   -1.6546    1.7592 H   0  0  0  0  0  0  0  0  0  0  0  0
    0.1999   -0.0879    2.2206 H   0  0  0  0  0  0  0  0  0  0  0  0
   -4.2403    1.7621    0.9781 H   0  0  0  0  0  0  0  0  0  0  0  0
   -3.7499    0.5538    2.1887 H   0  0  0  0  0  0  0  0  0  0  0  0
   -5.2085   -0.0429   -0.4380 H   0  0  0  0  0  0  0  0  0  0  0  0
   -1.5329   -2.5934   -0.1352 H   0  0  0  0  0  0  0  0  0  0  0  0
    1.3841   -0.0882   -2.0968 H   0  0  0  0  0  0  0  0  0  0  0  0
    1.1906   -3.3805    0.9260 H   0  0  0  0  0  0  0  0  0  0  0  0
    2.5749    0.5686    1.9961 H   0  0  0  0  0  0  0  0  0  0  0  0
   -4.4531   -1.9093    1.8656 H   0  0  0  0  0  0  0  0  0  0  0  0
   -3.7971   -1.9381    0.2195 H   0  0  0  0  0  0  0  0  0  0  0  0
   -5.4930   -2.3370    0.4957 H   0  0  0  0  0  0  0  0  0  0  0  0
   -6.6583    1.1365    1.2141 H   0  0  0  0  0  0  0  0  0  0  0  0
   -7.1712   -0.5433    1.0040 H   0  0  0  0  0  0  0  0  0  0  0  0
   -6.2579   -0.0719    2.4477 H   0  0  0  0  0  0  0  0  0  0  0  0
   -1.5211   -4.1117   -2.0756 H   0  0  0  0  0  0  0  0  0  0  0  0
    1.3801   -1.6170   -4.0313 H   0  0  0  0  0  0  0  0  0  0  0  0
   -0.0680   -3.6314   -4.0282 H   0  0  0  0  0  0  0  0  0  0  0  0
    3.5223   -4.1777    0.9130 H   0  0  0  0  0  0  0  0  0  0  0  0
    4.8919   -0.2417    1.9594 H   0  0  0  0  0  0  0  0  0  0  0  0
    5.3790   -2.6157    1.4300 H   0  0  0  0  0  0  0  0  0  0  0  0
  1 10  1  0  0  0  0
  1 14  1  0  0  0  0
  2  4  1  0  0  0  0
  2  5  1  0  0  0  0
  2  6  1  0  0  0  0
  3  7  1  0  0  0  0
  3 11  1  0  0  0  0
  3 12  1  0  0  0  0
  4  7  1  0  0  0  0
  4 28  1  0  0  0  0
  4 29  1  0  0  0  0
  5  8  1  0  0  0  0
  5 31  1  0  0  0  0
  5 32  1  0  0  0  0
  6  9  1  0  0  0  0
  6 33  1  0  0  0  0
  6 34  1  0  0  0  0
  7 10  1  0  0  0  0
  7 30  1  0  0  0  0
  8  9  1  0  0  0  0
  8 35  1  0  0  0  0
  8 36  1  0  0  0  0
  9 37  1  0  0  0  0
  9 38  1  0  0  0  0
 10 39  1  0  0  0  0
 10 40  1  0  0  0  0
 11 13  1  0  0  0  0
 11 41  1  0  0  0  0
 11 42  1  0  0  0  0
 12 16  2  0  0  0  0
 12 17  1  0  0  0  0
 13 18  2  0  0  0  0
 13 19  1  0  0  0  0
 14 15  1  0  0  0  0
 14 43  1  0  0  0  0
 14 44  1  0  0  0  0
 15 20  1  0  0  0  0
 15 21  1  0  0  0  0
 15 45  1  0  0  0  0
 16 22  1  0  0  0  0
 16 46  1  0  0  0  0
 17 23  2  0  0  0  0
 17 47  1  0  0  0  0
 18 25  1  0  0  0  0
 18 48  1  0  0  0  0
 19 26  2  0  0  0  0
 19 49  1  0  0  0  0
 20 50  1  0  0  0  0
 20 51  1  0  0  0  0
 20 52  1  0  0  0  0
 21 53  1  0  0  0  0
 21 54  1  0  0  0  0
 21 55  1  0  0  0  0
 22 24  2  0  0  0  0
 22 56  1  0  0  0  0
 23 24  1  0  0  0  0
 23 57  1  0  0  0  0
 24 58  1  0  0  0  0
 25 27  2  0  0  0  0
 25 59  1  0  0  0  0
 26 27  1  0  0  0  0
 26 60  1  0  0  0  0
 27 61  1  0  0  0  0
M  END
> <PUBCHEM_COMPOUND_CID>
91640

> <PUBCHEM_CONFORMER_RMSD>
1

> <PUBCHEM_CONFORMER_DIVERSEORDER>
1
32
123
64
102
26
115
107
105
56
92
20
76
61
33
15
130
58
44
2
91
131
114
17
78
8
125
28
75
70
31
3
84
133
87
72
86
60
74
117
113
71
55
85
81
94
25
10
57
108
83
101
51
45
118
59
128
96
22
21
37
4
89
11
77
127
111
132
36
93
35
5
82
9
116
50
109
63
30
42
90
41
12
24
134
112
122
52
67
65
18
100
14
79
99
80
98
6
29
49
126
48
40
39
16
110
27
104
124
129
106
7
43
120
68
38
95
23
73
121
88
19
69
46
13
66
53
54
47
119
103
62
34
97

> <PUBCHEM_MMFF94_PARTIAL_CHARGES>
32
1 -0.56
10 0.28
11 0.51
12 0.1
13 -0.14
14 0.28
16 -0.15
17 -0.15
18 -0.15
19 -0.15
2 -0.81
22 -0.15
23 -0.15
24 -0.15
25 -0.15
26 -0.15
27 -0.15
3 -0.84
4 0.27
46 0.15
47 0.15
48 0.15
49 0.15
5 0.27
56 0.15
57 0.15
58 0.15
59 0.15
6 0.27
60 0.15
61 0.15
7 0.37

> <PUBCHEM_EFFECTIVE_ROTOR_COUNT>
11

> <PUBCHEM_PHARMACOPHORE_FEATURES>
7
1 1 acceptor
1 2 cation
1 3 cation
3 15 20 21 hydrophobe
5 2 5 6 8 9 rings
6 12 16 17 22 23 24 rings
6 13 18 19 25 26 27 rings

> <PUBCHEM_HEAVY_ATOM_COUNT>
27

> <PUBCHEM_ATOM_DEF_STEREO_COUNT>
0

> <PUBCHEM_ATOM_UDEF_STEREO_COUNT>
1

> <PUBCHEM_BOND_DEF_STEREO_COUNT>
0

> <PUBCHEM_BOND_UDEF_STEREO_COUNT>
0

> <PUBCHEM_ISOTOPIC_ATOM_COUNT>
0

> <PUBCHEM_COMPONENT_COUNT>
1

> <PUBCHEM_CACTVS_TAUTO_COUNT>
1

> <PUBCHEM_CONFORMER_ID>
000165F800000001

> <PUBCHEM_MMFF94_ENERGY>
80.5977

> <PUBCHEM_FEATURE_SELFOVERLAP>
35.522

> <PUBCHEM_SHAPE_FINGERPRINT>
10169797 241 17974325207240402979
107951 10 17468786407290978620
11297750 10 17121153365260990471
11582403 64 17548448206302731810
11763715 3 17754477663127717698
12058002 1 17913240635308575827
133893 2 17322346787203973248
14787075 74 17894917304180615186
14863182 85 17489595537041231791
14955137 171 18408606972108873506
15664445 248 18124340249491830677
17980427 23 18343293774059080703
17980427 26 17973723872351451246
19319366 153 17617654797223995539
20600515 1 18050857615539160105
20739085 24 18200600194082390179
21304303 282 17258767647381649369
23419403 2 16807263986339813807
23558518 356 17618224352710868476
23559900 14 17987821622149944823
23598288 3 17542761146223778506
25223398 141 16242962355551287825
26353 1 17189187051899818150
266924 78 17683217506945581268
3380486 145 17905280214458226328
394222 165 18195822979363555945
59755656 520 17105935522741918652
81228 2 17337534203937940258
9841814 1 18263947483133589761

> <PUBCHEM_SHAPE_MULTIPOLES>
539.82
7.63
6.53
2.76
13.27
10.71
2.46
-3.75
-7.41
-6.17
3.43
-1.05
-2.4
-2.32

> <PUBCHEM_SHAPE_SELFOVERLAP>
1117.445

> <PUBCHEM_SHAPE_VOLUME>
310.9

> <PUBCHEM_COORDINATE_TYPE>
2
5
10

$$$$
