2377
  -OEChem-09252020493D

 43 44  0     0  0  0  0  0  0999 V2000
   -0.4712   -0.6576   -0.7433 O   0  0  0  0  0  0  0  0  0  0  0  0
   -6.4454    0.4995    0.3220 N   0  0  0  0  0  0  0  0  0  0  0  0
   -2.7137    0.1176   -0.3212 C   0  0  0  0  0  0  0  0  0  0  0  0
   -4.1657   -0.2996   -0.0937 C   0  0  0  0  0  0  0  0  0  0  0  0
   -1.8128   -1.0879   -0.5556 C   0  0  0  0  0  0  0  0  0  0  0  0
   -5.0668    0.9189    0.0979 C   0  0  0  0  0  0  0  0  0  0  0  0
    1.4405   -1.1681    0.6097 C   0  0  0  0  0  0  0  0  0  0  0  0
    1.3827    0.1718    1.2661 C   0  0  0  0  0  0  0  0  0  0  0  0
    0.5163   -1.5294   -0.3646 C   0  0  0  0  0  0  0  0  0  0  0  0
    2.1906    1.2379    0.5552 C   0  0  0  0  0  0  0  0  0  0  0  0
    2.4389   -2.0678    0.9831 C   0  0  0  0  0  0  0  0  0  0  0  0
    0.5789   -2.7801   -0.9701 C   0  0  0  0  0  0  0  0  0  0  0  0
    2.5072   -3.3237    0.3799 C   0  0  0  0  0  0  0  0  0  0  0  0
    1.5773   -3.6799   -0.5967 C   0  0  0  0  0  0  0  0  0  0  0  0
    1.5851    1.9981   -0.4295 C   0  0  0  0  0  0  0  0  0  0  0  0
    3.5151    1.4265    0.9066 C   0  0  0  0  0  0  0  0  0  0  0  0
   -7.3111    1.6515    0.5306 C   0  0  0  0  0  0  0  0  0  0  0  0
    2.3291    2.9796   -1.0844 C   0  0  0  0  0  0  0  0  0  0  0  0
    4.2591    2.4080    0.2518 C   0  0  0  0  0  0  0  0  0  0  0  0
    3.6661    3.1845   -0.7437 C   0  0  0  0  0  0  0  0  0  0  0  0
   -2.6408    0.7946   -1.1814 H   0  0  0  0  0  0  0  0  0  0  0  0
   -2.3425    0.6864    0.5405 H   0  0  0  0  0  0  0  0  0  0  0  0
   -4.2233   -0.9496    0.7884 H   0  0  0  0  0  0  0  0  0  0  0  0
   -4.5166   -0.8875   -0.9513 H   0  0  0  0  0  0  0  0  0  0  0  0
   -1.8851   -1.7668    0.3043 H   0  0  0  0  0  0  0  0  0  0  0  0
   -2.1380   -1.6283   -1.4522 H   0  0  0  0  0  0  0  0  0  0  0  0
   -4.7059    1.5058    0.9515 H   0  0  0  0  0  0  0  0  0  0  0  0
   -5.0099    1.5535   -0.7947 H   0  0  0  0  0  0  0  0  0  0  0  0
    1.7290    0.0901    2.3063 H   0  0  0  0  0  0  0  0  0  0  0  0
    0.3419    0.5070    1.3712 H   0  0  0  0  0  0  0  0  0  0  0  0
    3.1703   -1.8053    1.7429 H   0  0  0  0  0  0  0  0  0  0  0  0
   -0.1330   -3.0675   -1.7386 H   0  0  0  0  0  0  0  0  0  0  0  0
   -6.4901   -0.1084    1.1394 H   0  0  0  0  0  0  0  0  0  0  0  0
    3.2848   -4.0241    0.6703 H   0  0  0  0  0  0  0  0  0  0  0  0
    1.6319   -4.6569   -1.0678 H   0  0  0  0  0  0  0  0  0  0  0  0
    0.5433    1.8549   -0.6986 H   0  0  0  0  0  0  0  0  0  0  0  0
    3.9860    0.8278    1.6807 H   0  0  0  0  0  0  0  0  0  0  0  0
   -8.3395    1.3107    0.6857 H   0  0  0  0  0  0  0  0  0  0  0  0
   -7.0107    2.2262    1.4128 H   0  0  0  0  0  0  0  0  0  0  0  0
   -7.3120    2.3107   -0.3435 H   0  0  0  0  0  0  0  0  0  0  0  0
    1.8669    3.5856   -1.8582 H   0  0  0  0  0  0  0  0  0  0  0  0
    5.3001    2.5678    0.5172 H   0  0  0  0  0  0  0  0  0  0  0  0
    4.2453    3.9491   -1.2532 H   0  0  0  0  0  0  0  0  0  0  0  0
  1  5  1  0  0  0  0
  1  9  1  0  0  0  0
  2  6  1  0  0  0  0
  2 17  1  0  0  0  0
  2 33  1  0  0  0  0
  3  4  1  0  0  0  0
  3  5  1  0  0  0  0
  3 21  1  0  0  0  0
  3 22  1  0  0  0  0
  4  6  1  0  0  0  0
  4 23  1  0  0  0  0
  4 24  1  0  0  0  0
  5 25  1  0  0  0  0
  5 26  1  0  0  0  0
  6 27  1  0  0  0  0
  6 28  1  0  0  0  0
  7  8  1  0  0  0  0
  7  9  1  0  0  0  0
  7 11  2  0  0  0  0
  8 10  1  0  0  0  0
  8 29  1  0  0  0  0
  8 30  1  0  0  0  0
  9 12  2  0  0  0  0
 10 15  2  0  0  0  0
 10 16  1  0  0  0  0
 11 13  1  0  0  0  0
 11 31  1  0  0  0  0
 12 14  1  0  0  0  0
 12 32  1  0  0  0  0
 13 14  2  0  0  0  0
 13 34  1  0  0  0  0
 14 35  1  0  0  0  0
 15 18  1  0  0  0  0
 15 36  1  0  0  0  0
 16 19  2  0  0  0  0
 16 37  1  0  0  0  0
 17 38  1  0  0  0  0
 17 39  1  0  0  0  0
 17 40  1  0  0  0  0
 18 20  2  0  0  0  0
 18 41  1  0  0  0  0
 19 20  1  0  0  0  0
 19 42  1  0  0  0  0
 20 43  1  0  0  0  0
M  END
> <PUBCHEM_COMPOUND_CID>
2377

> <PUBCHEM_CONFORMER_RMSD>
0.8

> <PUBCHEM_CONFORMER_DIVERSEORDER>
1
254
44
196
16
264
85
21
76
230
302
137
81
57
69
164
45
150
171
234
138
98
278
315
284
149
59
269
253
75
111
290
88
191
246
27
270
13
116
309
262
24
92
61
330
66
160
73
74
283
33
148
314
244
293
187
338
301
263
239
222
211
3
125
52
277
77
249
198
102
296
168
36
91
342
87
177
225
186
178
248
68
120
106
202
93
298
113
204
195
184
235
31
217
136
266
38
128
197
132
144
209
189
10
231
321
210
333
2
94
169
105
322
236
86
163
188
271
173
265
156
331
193
304
281
175
153
201
34
294
180
306
300
199
215
316
268
327
200
103
46
190
78
279
49
29
141
252
90
218
192
339
108
285
129
325
292
17
313
30
267
62
326
337
291
135
147
41
343
96
261
328
14
80
280
247
255
233
19
55
7
37
214
194
317
112
122
53
223
274
207
131
203
84
11
320
287
126
159
18
256
182
183
299
28
121
157
9
289
260
48
205
310
79
341
206
224
345
109
155
142
97
240
140
4
47
228
110
143
272
329
101
323
40
259
332
15
51
166
165
179
95
64
50
167
151
221
146
118
43
130
104
58
241
257
172
83
226
238
32
8
324
213
162
60
307
5
42
303
288
123
134
297
208
308
35
22
139
152
161
39
273
335
63
117
6
82
318
312
12
212
124
170
243
242
216
114
286
115
334
185
67
65
145
229
258
20
319
154
71
340
181
237
127
219
250
23
232
70
251
220
282
276
336
119
227
26
311
72
305
344
245
275
100
25
174
107
99
176
133
295
158
54
56
89

> <PUBCHEM_MMFF94_PARTIAL_CHARGES>
28
1 -0.36
10 -0.14
11 -0.15
12 -0.15
13 -0.15
14 -0.15
15 -0.15
16 -0.15
17 0.27
18 -0.15
19 -0.15
2 -0.9
20 -0.15
31 0.15
32 0.15
33 0.36
34 0.15
35 0.15
36 0.15
37 0.15
41 0.15
42 0.15
43 0.15
5 0.28
6 0.27
7 -0.14
8 0.29
9 0.08

> <PUBCHEM_EFFECTIVE_ROTOR_COUNT>
8

> <PUBCHEM_PHARMACOPHORE_FEATURES>
5
1 1 acceptor
1 2 cation
1 2 donor
6 10 15 16 18 19 20 rings
6 7 9 11 12 13 14 rings

> <PUBCHEM_HEAVY_ATOM_COUNT>
20

> <PUBCHEM_ATOM_DEF_STEREO_COUNT>
0

> <PUBCHEM_ATOM_UDEF_STEREO_COUNT>
0

> <PUBCHEM_BOND_DEF_STEREO_COUNT>
0

> <PUBCHEM_BOND_UDEF_STEREO_COUNT>
0

> <PUBCHEM_ISOTOPIC_ATOM_COUNT>
0

> <PUBCHEM_COMPONENT_COUNT>
1

> <PUBCHEM_CACTVS_TAUTO_COUNT>
1

> <PUBCHEM_CONFORMER_ID>
0000094900000001

> <PUBCHEM_MMFF94_ENERGY>
47.686

> <PUBCHEM_FEATURE_SELFOVERLAP>
25.371

> <PUBCHEM_SHAPE_FINGERPRINT>
10382601 240 18114451332074174208
10411042 1 17906734696237691790
10937287 8 18122061180672755581
11823591 26 18266451186583938148
12173636 292 17690270934636882686
12293681 160 17774450511079810696
12617007 42 17916595206699045950
12633257 1 17459168820073742329
13878862 14 18194097670011583285
13955234 65 18337113375991527995
14251764 75 18118691156386320757
14790565 3 18121784099632321981
15348495 7 18262530200330099555
15475509 35 16733820870502495363
17810953 82 18410575097706743085
17844677 252 18266464205526331817
18785283 64 18335979796440365382
20157964 124 18410570666175784261
20567600 9 18340783567163855733
20739085 24 18336257956044948704
21049683 271 18263373486445584142
21524375 3 17972866236244451434
23559900 14 18337677408619709415
25147074 1 18130209537382840239
3411729 13 18407761443271964777
397830 11 18187378632222065297
474 4 18408880776252900579
5385378 56 18411417306417679376
57724786 102 18339644435090306913
77188 2 17978793402761463030
8272917 22 18410573972530377867
9841814 1 18116146667119323299

> <PUBCHEM_SHAPE_MULTIPOLES>
400.74
11.63
4.62
1.06
32.65
1.81
0.04
-10.71
2.4
-6.68
-1.12
-0.58
-0.02
-1.12

> <PUBCHEM_SHAPE_SELFOVERLAP>
828.102

> <PUBCHEM_SHAPE_VOLUME>
230.1

> <PUBCHEM_COORDINATE_TYPE>
2
5
10

$$$$
