2481
  -OEChem-09252020493D

 32 32  0     0  0  0  0  0  0999 V2000
   -1.6378   -0.2416   -1.9532 O   0  0  0  0  0  0  0  0  0  0  0  0
    0.9371    0.7971    1.8338 O   0  0  0  0  0  0  0  0  0  0  0  0
    0.3367   -3.5601    0.5259 O   0  0  0  0  0  0  0  0  0  0  0  0
   -0.5687   -1.8913   -0.7706 N   0  0  0  0  0  0  0  0  0  0  0  0
    0.7169   -1.3724    1.1215 N   0  0  0  0  0  0  0  0  0  0  0  0
    0.1112    0.4395   -0.4179 C   0  0  0  0  0  0  0  0  0  0  0  0
   -0.6099    1.7900   -0.2980 C   0  0  0  0  0  0  0  0  0  0  0  0
   -1.9470    1.6944    0.4462 C   0  0  0  0  0  0  0  0  0  0  0  0
    1.3554    0.6047   -1.3089 C   0  0  0  0  0  0  0  0  0  0  0  0
   -0.8029   -0.5670   -1.1094 C   0  0  0  0  0  0  0  0  0  0  0  0
    0.6023    0.0000    0.9578 C   0  0  0  0  0  0  0  0  0  0  0  0
   -2.9191    0.7161   -0.2147 C   0  0  0  0  0  0  0  0  0  0  0  0
   -1.6925    1.2711    1.8949 C   0  0  0  0  0  0  0  0  0  0  0  0
    2.3450    1.5222   -0.6714 C   0  0  0  0  0  0  0  0  0  0  0  0
    0.1868   -2.3584    0.2981 C   0  0  0  0  0  0  0  0  0  0  0  0
    3.5864    1.1555   -0.3339 C   0  0  0  0  0  0  0  0  0  0  0  0
    0.0020    2.5416    0.2151 H   0  0  0  0  0  0  0  0  0  0  0  0
   -0.8081    2.1977   -1.2992 H   0  0  0  0  0  0  0  0  0  0  0  0
   -2.4042    2.6920    0.4520 H   0  0  0  0  0  0  0  0  0  0  0  0
    1.0757    1.0101   -2.2900 H   0  0  0  0  0  0  0  0  0  0  0  0
    1.8157   -0.3722   -1.5101 H   0  0  0  0  0  0  0  0  0  0  0  0
   -2.7789   -0.3434    0.0080 H   0  0  0  0  0  0  0  0  0  0  0  0
   -3.1637    0.9869   -1.2457 H   0  0  0  0  0  0  0  0  0  0  0  0
   -3.8871    0.8942    0.2838 H   0  0  0  0  0  0  0  0  0  0  0  0
   -1.4957    0.2067    2.0333 H   0  0  0  0  0  0  0  0  0  0  0  0
   -2.6240    1.4369    2.4550 H   0  0  0  0  0  0  0  0  0  0  0  0
   -0.9606    1.9108    2.3946 H   0  0  0  0  0  0  0  0  0  0  0  0
   -1.0654   -2.5930   -1.3123 H   0  0  0  0  0  0  0  0  0  0  0  0
    1.1682   -1.6916    1.9742 H   0  0  0  0  0  0  0  0  0  0  0  0
    2.0728    2.5641   -0.5289 H   0  0  0  0  0  0  0  0  0  0  0  0
    4.2734    1.8751    0.0978 H   0  0  0  0  0  0  0  0  0  0  0  0
    3.9377    0.1397   -0.4770 H   0  0  0  0  0  0  0  0  0  0  0  0
  1 10  2  0  0  0  0
  2 11  2  0  0  0  0
  3 15  2  0  0  0  0
  4 10  1  0  0  0  0
  4 15  1  0  0  0  0
  4 28  1  0  0  0  0
  5 11  1  0  0  0  0
  5 15  1  0  0  0  0
  5 29  1  0  0  0  0
  6  7  1  0  0  0  0
  6  9  1  0  0  0  0
  6 10  1  0  0  0  0
  6 11  1  0  0  0  0
  7  8  1  0  0  0  0
  7 17  1  0  0  0  0
  7 18  1  0  0  0  0
  8 12  1  0  0  0  0
  8 13  1  0  0  0  0
  8 19  1  0  0  0  0
  9 14  1  0  0  0  0
  9 20  1  0  0  0  0
  9 21  1  0  0  0  0
 12 22  1  0  0  0  0
 12 23  1  0  0  0  0
 12 24  1  0  0  0  0
 13 25  1  0  0  0  0
 13 26  1  0  0  0  0
 13 27  1  0  0  0  0
 14 16  2  0  0  0  0
 14 30  1  0  0  0  0
 16 31  1  0  0  0  0
 16 32  1  0  0  0  0
M  END
> <PUBCHEM_COMPOUND_CID>
2481

> <PUBCHEM_CONFORMER_RMSD>
0.6

> <PUBCHEM_CONFORMER_DIVERSEORDER>
1
3
2

> <PUBCHEM_MMFF94_PARTIAL_CHARGES>
17
1 -0.57
10 0.57
11 0.57
14 -0.29
15 0.69
16 -0.3
2 -0.57
28 0.37
29 0.37
3 -0.57
30 0.15
31 0.15
32 0.15
4 -0.49
5 -0.49
6 0.12
9 0.14

> <PUBCHEM_EFFECTIVE_ROTOR_COUNT>
4.6

> <PUBCHEM_PHARMACOPHORE_FEATURES>
8
1 1 acceptor
1 16 hydrophobe
1 2 acceptor
1 3 acceptor
1 4 donor
1 5 donor
3 8 12 13 hydrophobe
6 4 5 6 10 11 15 rings

> <PUBCHEM_HEAVY_ATOM_COUNT>
16

> <PUBCHEM_ATOM_DEF_STEREO_COUNT>
0

> <PUBCHEM_ATOM_UDEF_STEREO_COUNT>
0

> <PUBCHEM_BOND_DEF_STEREO_COUNT>
0

> <PUBCHEM_BOND_UDEF_STEREO_COUNT>
0

> <PUBCHEM_ISOTOPIC_ATOM_COUNT>
0

> <PUBCHEM_COMPONENT_COUNT>
1

> <PUBCHEM_CACTVS_TAUTO_COUNT>
5

> <PUBCHEM_CONFORMER_ID>
000009B100000001

> <PUBCHEM_MMFF94_ENERGY>
69.8252

> <PUBCHEM_FEATURE_SELFOVERLAP>
40.636

> <PUBCHEM_SHAPE_FINGERPRINT>
10702982 57 18335989752163878076
12423570 1 12512623906802765845
12491281 212 17488766513436815160
12592029 89 18262522476897518096
13024252 1 14057830750668596892
141345 1 9360516737880479448
14713566 1 17972022897930535068
14817 1 15022496678849159075
16945 1 17976838492223925337
20511035 2 17623833640165792805
21339142 149 18199749318354297268
22344851 341 18198923425659207110
23419403 2 16833822590982874935
305870 269 18265344906129882212
430814 3 18411703153623605013
528862 383 18191587445418562165
576247 118 17332815353391780878
68419 9 18057020459347283061
7364860 26 18048323236419682493
81228 2 17979941606264070896

> <PUBCHEM_SHAPE_MULTIPOLES>
301.7
3.33
2.76
1.63
1.51
2.92
-0.2
-2.53
0.35
0.15
-0.52
-0.42
-0.13
-0.63

> <PUBCHEM_SHAPE_SELFOVERLAP>
624.867

> <PUBCHEM_SHAPE_VOLUME>
169

> <PUBCHEM_COORDINATE_TYPE>
2
5
10

$$$$
