6803597
  -OEChem-09252020503D

 39 41  0     1  0  0  0  0  0999 V2000
    2.0465   -0.4729    2.4218 S   0  0  0  0  0  0  0  0  0  0  0  0
   -4.2332   -1.6689   -2.2182 S   0  0  0  0  0  0  0  0  0  0  0  0
    1.7570    2.7109   -0.9578 O   0  0  0  0  0  0  0  0  0  0  0  0
    3.7606    0.0131   -2.6164 O   0  0  0  0  0  0  0  0  0  0  0  0
    4.9542    1.4880   -1.3395 O   0  0  0  0  0  0  0  0  0  0  0  0
   -1.8298    0.4297    2.3379 O   0  0  0  0  0  0  0  0  0  0  0  0
   -5.1569    1.9142   -0.0627 O   0  0  0  0  0  0  0  0  0  0  0  0
    2.2262    0.6086    0.0043 N   0  0  0  0  0  0  0  0  0  0  0  0
   -0.8454    1.3667    0.4237 N   0  0  0  0  0  0  0  0  0  0  0  0
   -3.9577    2.0271    0.6461 N   0  0  0  0  0  0  0  0  0  0  0  0
   -4.4717   -1.1246    0.2976 N   0  0  0  0  0  0  0  0  0  0  0  0
   -5.5458   -3.1091   -0.4087 N   0  0  0  0  0  0  0  0  0  0  0  0
    1.2353    0.0136    0.8831 C   0  0  2  0  0  0  0  0  0  0  0  0
    0.5426    1.3934    0.8790 C   0  0  1  0  0  0  0  0  0  0  0  0
    1.5665    1.7640   -0.2310 C   0  0  0  0  0  0  0  0  0  0  0  0
    3.3901   -0.0006   -0.3458 C   0  0  0  0  0  0  0  0  0  0  0  0
    3.1733   -1.6417    1.5843 C   0  0  0  0  0  0  0  0  0  0  0  0
    3.8494   -1.0787    0.3355 C   0  0  0  0  0  0  0  0  0  0  0  0
    4.1358    0.6015   -1.4646 C   0  0  0  0  0  0  0  0  0  0  0  0
   -1.8815    0.8859    1.2070 C   0  0  0  0  0  0  0  0  0  0  0  0
    5.0444   -1.8232   -0.0156 C   0  0  0  0  0  0  0  0  0  0  0  0
   -3.2227    0.9631    0.5241 C   0  0  0  0  0  0  0  0  0  0  0  0
    5.4691   -2.8762    0.6722 C   0  0  0  0  0  0  0  0  0  0  0  0
   -3.7257   -0.1455   -0.2942 C   0  0  0  0  0  0  0  0  0  0  0  0
   -3.4804   -0.2443   -1.6305 C   0  0  0  0  0  0  0  0  0  0  0  0
   -4.8003   -1.9944   -0.6317 C   0  0  0  0  0  0  0  0  0  0  0  0
    0.6700   -0.7882    0.3914 H   0  0  0  0  0  0  0  0  0  0  0  0
    0.6659    2.0093    1.7779 H   0  0  0  0  0  0  0  0  0  0  0  0
   -1.0788    1.7156   -0.5033 H   0  0  0  0  0  0  0  0  0  0  0  0
    3.8942   -1.8536    2.3788 H   0  0  0  0  0  0  0  0  0  0  0  0
    2.6186   -2.5555    1.3441 H   0  0  0  0  0  0  0  0  0  0  0  0
    5.6302   -1.4948   -0.8688 H   0  0  0  0  0  0  0  0  0  0  0  0
    6.3826   -3.3697    0.3487 H   0  0  0  0  0  0  0  0  0  0  0  0
    4.9890   -3.3352    1.5254 H   0  0  0  0  0  0  0  0  0  0  0  0
    4.2338    0.3835   -3.3918 H   0  0  0  0  0  0  0  0  0  0  0  0
   -2.9209    0.4133   -2.2808 H   0  0  0  0  0  0  0  0  0  0  0  0
   -5.5772    2.7699    0.1274 H   0  0  0  0  0  0  0  0  0  0  0  0
   -5.9006   -3.3390    0.5138 H   0  0  0  0  0  0  0  0  0  0  0  0
   -5.7770   -3.7558   -1.1556 H   0  0  0  0  0  0  0  0  0  0  0  0
  1 13  1  0  0  0  0
  1 17  1  0  0  0  0
  2 25  1  0  0  0  0
  2 26  1  0  0  0  0
  3 15  2  0  0  0  0
  4 19  1  0  0  0  0
  4 35  1  0  0  0  0
  5 19  2  0  0  0  0
  6 20  2  0  0  0  0
  7 10  1  0  0  0  0
  7 37  1  0  0  0  0
  8 13  1  0  0  0  0
  8 15  1  0  0  0  0
  8 16  1  0  0  0  0
  9 14  1  0  0  0  0
  9 20  1  0  0  0  0
  9 29  1  0  0  0  0
 10 22  2  3  0  0  0
 11 24  1  0  0  0  0
 11 26  2  0  0  0  0
 12 26  1  0  0  0  0
 12 38  1  0  0  0  0
 12 39  1  0  0  0  0
 13 14  1  0  0  0  0
 13 27  1  0  0  0  0
 14 15  1  0  0  0  0
 14 28  1  0  0  0  0
 16 18  2  0  0  0  0
 16 19  1  0  0  0  0
 17 18  1  0  0  0  0
 17 30  1  0  0  0  0
 17 31  1  0  0  0  0
 18 21  1  0  0  0  0
 20 22  1  0  0  0  0
 21 23  2  0  0  0  0
 21 32  1  0  0  0  0
 22 24  1  0  0  0  0
 23 33  1  0  0  0  0
 23 34  1  0  0  0  0
 24 25  2  0  0  0  0
 25 36  1  0  0  0  0
M  END
> <PUBCHEM_COMPOUND_CID>
6803597

> <PUBCHEM_CONFORMER_RMSD>
0.8

> <PUBCHEM_CONFORMER_DIVERSEORDER>
33
16
111
39
76
63
144
130
168
64
79
70
185
55
58
41
139
40
7
116
118
104
146
109
174
101
96
147
73
170
153
4
129
183
19
38
172
8
134
173
20
165
83
121
60
106
90
92
124
167
67
155
94
164
181
102
52
169
9
47
119
162
160
166
75
176
74
25
136
53
84
149
27
103
110
29
44
182
114
131
77
51
115
26
85
117
93
100
108
177
65
137
163
154
30
120
99
107
140
46
12
148
21
128
133
28
123
37
122
57
71
5
81
161
132
156
157
87
82
184
97
113
3
151
175
59
150
126
24
62
36
6
43
17
135
142
66
78
178
141
127
158
32
45
69
143
138
152
95
171
179
125
80
1
22
35
159
180
72
112
145
105
42
49
11
98
89
15
88
56
61
14
48
91
23
86
31
68
10
50
2
13
54
34
18

> <PUBCHEM_MMFF94_PARTIAL_CHARGES>
35
1 -0.45
10 -0.51
11 -0.57
12 -0.88
13 0.44
14 0.28
15 0.58
16 0.12
17 0.37
18 -0.14
19 0.71
2 -0.08
20 0.63
21 -0.15
22 0.54
23 -0.3
24 0.14
25 -0.11
26 0.46
29 0.37
3 -0.57
32 0.15
33 0.15
34 0.15
35 0.5
36 0.15
37 0.4
38 0.4
39 0.4
4 -0.65
5 -0.57
6 -0.57
7 -0.34
8 -0.39
9 -0.65

> <PUBCHEM_EFFECTIVE_ROTOR_COUNT>
6.6

> <PUBCHEM_PHARMACOPHORE_FEATURES>
14
1 10 acceptor
1 12 donor
1 23 hydrophobe
1 3 acceptor
1 4 acceptor
1 5 acceptor
1 6 acceptor
1 7 anion
1 9 donor
3 11 12 26 cation
3 4 5 19 anion
4 8 13 14 15 rings
5 2 11 24 25 26 rings
6 1 8 13 16 17 18 rings

> <PUBCHEM_HEAVY_ATOM_COUNT>
26

> <PUBCHEM_ATOM_DEF_STEREO_COUNT>
0

> <PUBCHEM_ATOM_UDEF_STEREO_COUNT>
2

> <PUBCHEM_BOND_DEF_STEREO_COUNT>
0

> <PUBCHEM_BOND_UDEF_STEREO_COUNT>
1

> <PUBCHEM_ISOTOPIC_ATOM_COUNT>
0

> <PUBCHEM_COMPONENT_COUNT>
1

> <PUBCHEM_CACTVS_TAUTO_COUNT>
8

> <PUBCHEM_CONFORMER_ID>
0067D08D00000021

> <PUBCHEM_MMFF94_ENERGY>
77.1795

> <PUBCHEM_FEATURE_SELFOVERLAP>
71.36

> <PUBCHEM_SHAPE_FINGERPRINT>
10622 236 18339348704463493855
10928967 22 17774158041113656223
11552529 35 12965977208642958893
11621639 183 15553316978995174754
11796584 16 17917714556553310608
12616971 3 18188215299169902096
14251751 18 17988636389413481154
14480069 147 18333734637052795755
14576447 43 18338519741510020884
14848178 5 18342446020165628682
15537594 2 18339374019174088993
17349148 13 18343584044596329922
17492 89 18341042030027300779
193927 3 17917432072755157647
20626108 58 18411692184445780384
20645477 70 17749681709798464330
22393880 68 18412828005616735525
235170 7 16515683359941478387
23559900 14 17845637205903614529
339767 52 18059848411812182823
4015057 19 17895201025536250992
439807 62 18409449224139624383
44062 13 18342735196466717317
46194498 28 15648487595342444932
5104073 3 17775283885105997569
559249 180 18200024041916380873
633830 44 17386013818810352217
7471813 234 18115870711898046696
7808743 9 11170205232381831195
7970288 3 18342451586607248895
960060 61 18113623365474687636

> <PUBCHEM_SHAPE_MULTIPOLES>
488.52
13.58
2.81
2.09
4.41
0.93
-0.21
8.48
-3.65
1.05
-0.22
-1.05
0.09
-2.83

> <PUBCHEM_SHAPE_SELFOVERLAP>
1024.956

> <PUBCHEM_SHAPE_VOLUME>
278.4

> <PUBCHEM_COORDINATE_TYPE>
2
5
10

$$$$
