60063
  -OEChem-09252020513D

 42 45  0     1  0  0  0  0  0999 V2000
    1.4533    2.0989    0.4446 Cl  0  0  0  0  0  0  0  0  0  0  0  0
    2.2516   -2.8002   -0.1795 F   0  0  0  0  0  0  0  0  0  0  0  0
   -2.7763   -2.6521   -0.2977 O   0  0  0  0  0  0  0  0  0  0  0  0
   -5.1595   -1.8163    0.3902 O   0  0  0  0  0  0  0  0  0  0  0  0
   -5.6452    0.2335   -0.5000 O   0  0  0  0  0  0  0  0  0  0  0  0
   -1.6085    1.2161    0.2447 N   0  0  0  0  0  0  0  0  0  0  0  0
    3.0816   -0.2461    0.1817 N   0  0  3  0  0  0  0  0  0  0  0  0
    6.3866    0.4106   -1.1937 N   0  0  0  0  0  0  0  0  0  0  0  0
   -1.3885    2.6689    0.4415 C   0  0  0  0  0  0  0  0  0  0  0  0
   -1.1135    3.5612   -0.7209 C   0  0  0  0  0  0  0  0  0  0  0  0
   -2.4176    3.6598    0.0150 C   0  0  0  0  0  0  0  0  0  0  0  0
   -0.6014    0.2147    0.1404 C   0  0  0  0  0  0  0  0  0  0  0  0
    5.2206    0.5777   -0.3440 C   0  0  1  0  0  0  0  0  0  0  0  0
    3.9234    0.0582   -0.9754 C   0  0  0  0  0  0  0  0  0  0  0  0
    5.3065   -0.2244    0.9497 C   0  0  0  0  0  0  0  0  0  0  0  0
    3.8532   -0.2516    1.4239 C   0  0  0  0  0  0  0  0  0  0  0  0
    1.7291   -0.5017    0.1101 C   0  0  0  0  0  0  0  0  0  0  0  0
   -2.9395    0.8561    0.1608 C   0  0  0  0  0  0  0  0  0  0  0  0
    0.7698    0.5091    0.2167 C   0  0  0  0  0  0  0  0  0  0  0  0
   -0.9773   -1.1330   -0.0475 C   0  0  0  0  0  0  0  0  0  0  0  0
   -3.4025   -0.3876   -0.0158 C   0  0  0  0  0  0  0  0  0  0  0  0
    1.3375   -1.8246   -0.0748 C   0  0  0  0  0  0  0  0  0  0  0  0
   -2.4173   -1.4925   -0.1347 C   0  0  0  0  0  0  0  0  0  0  0  0
   -0.0152   -2.1449   -0.1541 C   0  0  0  0  0  0  0  0  0  0  0  0
   -4.8511   -0.5897   -0.0812 C   0  0  0  0  0  0  0  0  0  0  0  0
   -0.9562    2.8892    1.4128 H   0  0  0  0  0  0  0  0  0  0  0  0
   -1.1268    3.1333   -1.7160 H   0  0  0  0  0  0  0  0  0  0  0  0
   -0.4091    4.3739   -0.5927 H   0  0  0  0  0  0  0  0  0  0  0  0
   -2.5693    4.5281    0.6477 H   0  0  0  0  0  0  0  0  0  0  0  0
   -3.2836    3.4247   -0.5906 H   0  0  0  0  0  0  0  0  0  0  0  0
    5.1055    1.6414   -0.0993 H   0  0  0  0  0  0  0  0  0  0  0  0
    3.4748    0.8109   -1.6328 H   0  0  0  0  0  0  0  0  0  0  0  0
    4.0891   -0.8582   -1.5546 H   0  0  0  0  0  0  0  0  0  0  0  0
    5.9768    0.2239    1.6893 H   0  0  0  0  0  0  0  0  0  0  0  0
    5.6494   -1.2491    0.7559 H   0  0  0  0  0  0  0  0  0  0  0  0
    3.6555   -1.1438    2.0273 H   0  0  0  0  0  0  0  0  0  0  0  0
    3.6236    0.6378    2.0205 H   0  0  0  0  0  0  0  0  0  0  0  0
   -3.6609    1.6466    0.3217 H   0  0  0  0  0  0  0  0  0  0  0  0
   -0.3002   -3.1832   -0.2991 H   0  0  0  0  0  0  0  0  0  0  0  0
    6.2281    0.8781   -2.0856 H   0  0  0  0  0  0  0  0  0  0  0  0
    6.5181   -0.5758   -1.4147 H   0  0  0  0  0  0  0  0  0  0  0  0
   -6.1246   -1.9899    0.3625 H   0  0  0  0  0  0  0  0  0  0  0  0
  1 19  1  0  0  0  0
  2 22  1  0  0  0  0
  3 23  2  0  0  0  0
  4 25  1  0  0  0  0
  4 42  1  0  0  0  0
  5 25  2  0  0  0  0
  6  9  1  0  0  0  0
  6 12  1  0  0  0  0
  6 18  1  0  0  0  0
  7 14  1  0  0  0  0
  7 16  1  0  0  0  0
  7 17  1  0  0  0  0
  8 13  1  0  0  0  0
  8 40  1  0  0  0  0
  8 41  1  0  0  0  0
  9 10  1  0  0  0  0
  9 11  1  0  0  0  0
  9 26  1  0  0  0  0
 10 11  1  0  0  0  0
 10 27  1  0  0  0  0
 10 28  1  0  0  0  0
 11 29  1  0  0  0  0
 11 30  1  0  0  0  0
 12 19  2  0  0  0  0
 12 20  1  0  0  0  0
 13 14  1  0  0  0  0
 13 15  1  0  0  0  0
 13 31  1  0  0  0  0
 14 32  1  0  0  0  0
 14 33  1  0  0  0  0
 15 16  1  0  0  0  0
 15 34  1  0  0  0  0
 15 35  1  0  0  0  0
 16 36  1  0  0  0  0
 16 37  1  0  0  0  0
 17 19  1  0  0  0  0
 17 22  2  0  0  0  0
 18 21  2  0  0  0  0
 18 38  1  0  0  0  0
 20 23  1  0  0  0  0
 20 24  2  0  0  0  0
 21 23  1  0  0  0  0
 21 25  1  0  0  0  0
 22 24  1  0  0  0  0
 24 39  1  0  0  0  0
M  END
> <PUBCHEM_COMPOUND_CID>
60063

> <PUBCHEM_CONFORMER_RMSD>
0.8

> <PUBCHEM_CONFORMER_DIVERSEORDER>
1
3
2

> <PUBCHEM_MMFF94_PARTIAL_CHARGES>
34
1 -0.18
10 -0.2
11 -0.2
12 0.1
13 0.27
14 0.37
16 0.37
17 0.1
18 -0.05
19 0.18
2 -0.19
20 0.09
21 0.03
22 0.19
23 0.47
24 -0.15
25 0.71
26 0.1
27 0.1
28 0.1
29 0.1
3 -0.57
30 0.1
38 0.15
39 0.15
4 -0.65
40 0.36
41 0.36
42 0.5
5 -0.57
6 -0.37
7 -0.84
8 -0.99
9 0.07

> <PUBCHEM_EFFECTIVE_ROTOR_COUNT>
4.6

> <PUBCHEM_PHARMACOPHORE_FEATURES>
12
1 21 anion
1 3 acceptor
1 4 acceptor
1 5 acceptor
1 6 cation
1 7 cation
1 8 cation
1 8 donor
3 4 5 25 anion
5 7 13 14 15 16 rings
6 12 17 19 20 22 24 rings
6 6 12 18 20 21 23 rings

> <PUBCHEM_HEAVY_ATOM_COUNT>
25

> <PUBCHEM_ATOM_DEF_STEREO_COUNT>
0

> <PUBCHEM_ATOM_UDEF_STEREO_COUNT>
1

> <PUBCHEM_BOND_DEF_STEREO_COUNT>
0

> <PUBCHEM_BOND_UDEF_STEREO_COUNT>
0

> <PUBCHEM_ISOTOPIC_ATOM_COUNT>
0

> <PUBCHEM_COMPONENT_COUNT>
1

> <PUBCHEM_CACTVS_TAUTO_COUNT>
1

> <PUBCHEM_CONFORMER_ID>
0000EA9F00000001

> <PUBCHEM_MMFF94_ENERGY>
99.0659

> <PUBCHEM_FEATURE_SELFOVERLAP>
61.316

> <PUBCHEM_SHAPE_FINGERPRINT>
10319926 262 18197474283226256778
10366900 7 18409731768019165224
10411042 1 18123188175838670975
10670039 82 18336276652443854988
10906281 52 18336562546493376961
10967382 1 18411697729485884123
1100329 8 18265615566558016715
11595378 159 18116689920843056536
11963148 33 18338229470198851115
12011746 2 18342454846375701919
12107183 9 17612862700601619818
12166972 35 17677052459439122253
12236239 1 17894347791696506490
12293681 4 18187090580854034347
12390115 104 18057896752914068169
12403259 415 17988915661826141752
12553582 1 18339632434323830479
12596602 18 17312822697341014426
12788726 201 18334854996002751809
12838862 33 18340186554046102273
13140716 1 18267296723741437675
138480 1 15240602385578703457
13862211 1 18340198678554305475
13911987 19 18334005116802004415
14787075 74 18186801417527290675
14790565 3 18339651142975005824
14955137 171 18193848265328188145
15196674 1 18340205167996480811
15484559 13 14743499714112736334
1601671 61 18411981377368172722
16087824 20 18338517436157685413
16945 1 18412258419859239891
17349148 13 18040436590095788054
17492 89 18264766550087027090
19591789 44 18195808698322989555
20510252 161 18270959025591553665
21029758 27 18336830887687027553
21033648 29 16988268820546644098
21033650 10 18192176836019079860
21049683 271 18044101370152837053
21236236 1 18341332193232448632
21267235 1 18340774857460763539
21360443 126 18044648708148668045
21641784 216 18260558800649430188
21857420 4 15617168174382588214
22122407 14 15647350636216732036
22182313 1 18059012766122349222
2297311 6 18342748424596717396
2334 1 18051689146581291169
23366157 5 17899702263164041866
23402539 116 18342449378945956047
23557571 272 18130233670492820276
23558518 356 18117565020112981467
23559900 14 18270676601221783904
23566358 2 18198906907199019823
2748010 2 18124867112924263809
283562 15 18411421674663072729
335352 9 18411417341626432149
34934 24 18411693288479728671
350125 39 18411418414482760192
469060 322 18338249201377959537
5104073 3 18269554931704630747
5486654 2 18410293622787911855
59554788 170 18341610481380608784
59755656 215 18412824668353040374

> <PUBCHEM_SHAPE_MULTIPOLES>
476.53
11.12
3.41
0.88
6.52
2.37
0.04
-1.73
-0.99
-3.17
-0.29
0.94
0.11
-0.13

> <PUBCHEM_SHAPE_SELFOVERLAP>
1034.29

> <PUBCHEM_SHAPE_VOLUME>
262

> <PUBCHEM_COORDINATE_TYPE>
2
5
10

$$$$
