54680103
  -OEChem-09252020523D

 53 56  0     1  0  0  0  0  0999 V2000
    4.1263   -3.1569   -1.6834 Cl  0  0  0  0  0  0  0  0  0  0  0  0
   -2.0519    2.3512    0.5547 O   0  0  0  0  0  0  0  0  0  0  0  0
    2.1681   -2.5081    1.1602 O   0  0  0  0  0  0  0  0  0  0  0  0
   -0.1250    1.9107    2.4005 O   0  0  0  0  0  0  0  0  0  0  0  0
   -2.5018    0.0904    2.5756 O   0  0  0  0  0  0  0  0  0  0  0  0
    2.5563    2.2766    1.4434 O   0  0  0  0  0  0  0  0  0  0  0  0
   -3.9950   -1.4232   -1.6575 O   0  0  0  0  0  0  0  0  0  0  0  0
    4.8757    2.2640    0.4454 O   0  0  0  0  0  0  0  0  0  0  0  0
   -3.6945   -2.5096    1.9671 O   0  0  0  0  0  0  0  0  0  0  0  0
   -3.2266    1.4995   -1.9851 N   0  0  0  0  0  0  0  0  0  0  0  0
   -5.4580   -1.4636    0.9052 N   0  0  0  0  0  0  0  0  0  0  0  0
   -1.1122    0.6562   -0.9062 C   0  0  1  0  0  0  0  0  0  0  0  0
   -1.4611    1.0474    0.5547 C   0  0  1  0  0  0  0  0  0  0  0  0
   -0.1103   -0.5363   -1.0267 C   0  0  0  0  0  0  0  0  0  0  0  0
    0.6942   -0.8184    0.2502 C   0  0  2  0  0  0  0  0  0  0  0  0
   -2.3763    0.3397   -1.7278 C   0  0  1  0  0  0  0  0  0  0  0  0
    1.0296    0.4997    0.8811 C   0  0  0  0  0  0  0  0  0  0  0  0
   -0.1743    1.2225    1.3837 C   0  0  0  0  0  0  0  0  0  0  0  0
    1.9237   -1.7125   -0.0045 C   0  0  1  0  0  0  0  0  0  0  0  0
   -2.4418    0.0821    1.1898 C   0  0  0  0  0  0  0  0  0  0  0  0
   -3.2474   -0.6824   -1.0172 C   0  0  0  0  0  0  0  0  0  0  0  0
   -3.2355   -0.7409    0.4789 C   0  0  0  0  0  0  0  0  0  0  0  0
    3.1994   -0.9519   -0.2697 C   0  0  0  0  0  0  0  0  0  0  0  0
    2.2575    1.0464    0.8991 C   0  0  0  0  0  0  0  0  0  0  0  0
    3.3717    0.3617    0.2122 C   0  0  0  0  0  0  0  0  0  0  0  0
   -4.3631    1.1225   -2.8238 C   0  0  0  0  0  0  0  0  0  0  0  0
   -2.4543    2.5671   -2.6185 C   0  0  0  0  0  0  0  0  0  0  0  0
    4.2515   -1.5925   -0.9448 C   0  0  0  0  0  0  0  0  0  0  0  0
   -4.1317   -1.6632    1.1962 C   0  0  0  0  0  0  0  0  0  0  0  0
    4.6035    1.0030   -0.0016 C   0  0  0  0  0  0  0  0  0  0  0  0
    5.4637   -0.9385   -1.1521 C   0  0  0  0  0  0  0  0  0  0  0  0
    5.6397    0.3572   -0.6793 C   0  0  0  0  0  0  0  0  0  0  0  0
   -0.5713    1.4981   -1.3558 H   0  0  0  0  0  0  0  0  0  0  0  0
    0.5680   -0.3236   -1.8650 H   0  0  0  0  0  0  0  0  0  0  0  0
   -0.6310   -1.4616   -1.3052 H   0  0  0  0  0  0  0  0  0  0  0  0
    0.0364   -1.3629    0.9427 H   0  0  0  0  0  0  0  0  0  0  0  0
   -2.0541   -0.1100   -2.6788 H   0  0  0  0  0  0  0  0  0  0  0  0
    1.6874   -2.3990   -0.8245 H   0  0  0  0  0  0  0  0  0  0  0  0
   -2.3634    2.5482    1.4548 H   0  0  0  0  0  0  0  0  0  0  0  0
   -1.7592    3.0540   -1.9295 H   0  0  0  0  0  0  0  0  0  0  0  0
   -1.9040    2.2178   -3.5000 H   0  0  0  0  0  0  0  0  0  0  0  0
   -4.0665    0.5577   -3.7152 H   0  0  0  0  0  0  0  0  0  0  0  0
   -5.1220    0.5645   -2.2671 H   0  0  0  0  0  0  0  0  0  0  0  0
   -4.8947    2.0177   -3.1707 H   0  0  0  0  0  0  0  0  0  0  0  0
   -3.1191    3.3759   -2.9467 H   0  0  0  0  0  0  0  0  0  0  0  0
    1.3953   -3.0842    1.2890 H   0  0  0  0  0  0  0  0  0  0  0  0
   -2.0089    0.8610    2.9023 H   0  0  0  0  0  0  0  0  0  0  0  0
    1.7537    2.6450    1.8482 H   0  0  0  0  0  0  0  0  0  0  0  0
    6.2795   -1.4168   -1.6885 H   0  0  0  0  0  0  0  0  0  0  0  0
    6.5931    0.8520   -0.8470 H   0  0  0  0  0  0  0  0  0  0  0  0
   -5.7775   -0.7456    0.2623 H   0  0  0  0  0  0  0  0  0  0  0  0
   -6.1765   -2.0366    1.3355 H   0  0  0  0  0  0  0  0  0  0  0  0
    5.7812    2.5154    0.1958 H   0  0  0  0  0  0  0  0  0  0  0  0
  1 28  1  0  0  0  0
  2 13  1  0  0  0  0
  2 39  1  0  0  0  0
  3 19  1  0  0  0  0
  3 46  1  0  0  0  0
  4 18  2  0  0  0  0
  5 20  1  0  0  0  0
  5 47  1  0  0  0  0
  6 24  1  0  0  0  0
  6 48  1  0  0  0  0
  7 21  2  0  0  0  0
  8 30  1  0  0  0  0
  8 53  1  0  0  0  0
  9 29  2  0  0  0  0
 10 16  1  0  0  0  0
 10 26  1  0  0  0  0
 10 27  1  0  0  0  0
 11 29  1  0  0  0  0
 11 51  1  0  0  0  0
 11 52  1  0  0  0  0
 12 13  1  0  0  0  0
 12 14  1  0  0  0  0
 12 16  1  0  0  0  0
 12 33  1  0  0  0  0
 13 18  1  0  0  0  0
 13 20  1  0  0  0  0
 14 15  1  0  0  0  0
 14 34  1  0  0  0  0
 14 35  1  0  0  0  0
 15 17  1  0  0  0  0
 15 19  1  0  0  0  0
 15 36  1  0  0  0  0
 16 21  1  0  0  0  0
 16 37  1  0  0  0  0
 17 18  1  0  0  0  0
 17 24  2  0  0  0  0
 19 23  1  0  0  0  0
 19 38  1  0  0  0  0
 20 22  2  0  0  0  0
 21 22  1  0  0  0  0
 22 29  1  0  0  0  0
 23 25  1  0  0  0  0
 23 28  2  0  0  0  0
 24 25  1  0  0  0  0
 25 30  2  0  0  0  0
 26 42  1  0  0  0  0
 26 43  1  0  0  0  0
 26 44  1  0  0  0  0
 27 40  1  0  0  0  0
 27 41  1  0  0  0  0
 27 45  1  0  0  0  0
 28 31  1  0  0  0  0
 30 32  1  0  0  0  0
 31 32  2  0  0  0  0
 31 49  1  0  0  0  0
 32 50  1  0  0  0  0
M  END
> <PUBCHEM_COMPOUND_CID>
54680103

> <PUBCHEM_CONFORMER_RMSD>
0.8

> <PUBCHEM_CONFORMER_DIVERSEORDER>
3
23
12
27
33
4
18
5
8
25
21
10
17
1
20
15
2
29
24
11
7
30
6
22
31
19
13
26
36
28
32
34
14
16
35
9

> <PUBCHEM_MMFF94_PARTIAL_CHARGES>
39
1 -0.18
10 -0.81
11 -0.8
13 0.48
15 0.14
16 0.33
17 -0.12
18 0.49
19 0.42
2 -0.68
20 -0.06
21 0.49
22 0.03
23 -0.14
24 0.05
25 0.03
26 0.27
27 0.27
28 0.18
29 0.62
3 -0.68
30 0.08
31 -0.15
32 -0.15
39 0.4
4 -0.57
46 0.4
47 0.45
48 0.45
49 0.15
5 -0.53
50 0.15
51 0.37
52 0.37
53 0.45
6 -0.53
7 -0.57
8 -0.53
9 -0.57

> <PUBCHEM_EFFECTIVE_ROTOR_COUNT>
2.6

> <PUBCHEM_PHARMACOPHORE_FEATURES>
17
1 10 cation
1 11 donor
1 2 acceptor
1 2 donor
1 22 anion
1 3 acceptor
1 3 donor
1 4 acceptor
1 5 donor
1 6 donor
1 7 acceptor
1 8 donor
1 9 acceptor
6 12 13 14 15 17 18 rings
6 12 13 16 20 21 22 rings
6 15 17 19 23 24 25 rings
6 23 25 28 30 31 32 rings

> <PUBCHEM_HEAVY_ATOM_COUNT>
32

> <PUBCHEM_ATOM_DEF_STEREO_COUNT>
0

> <PUBCHEM_ATOM_UDEF_STEREO_COUNT>
5

> <PUBCHEM_BOND_DEF_STEREO_COUNT>
0

> <PUBCHEM_BOND_UDEF_STEREO_COUNT>
0

> <PUBCHEM_ISOTOPIC_ATOM_COUNT>
0

> <PUBCHEM_COMPONENT_COUNT>
1

> <PUBCHEM_CACTVS_TAUTO_COUNT>
132

> <PUBCHEM_CONFORMER_ID>
03425A2700000003

> <PUBCHEM_MMFF94_ENERGY>
104.4671

> <PUBCHEM_FEATURE_SELFOVERLAP>
86.449

> <PUBCHEM_SHAPE_FINGERPRINT>
10928967 22 17060334111382458734
11049842 53 17172046605914504449
11135926 11 18060137653107694742
11578080 2 18042130859972814149
12236239 1 16702028620618273259
12422481 6 15983719735871492710
12553582 1 17703784808515202202
12633257 1 14189575217250603754
12788726 201 17486206713113159225
131258 38 15044932828459164167
13224815 77 18202275892794900594
13583140 156 18261387798336368822
13782708 43 18041010497213051170
13911987 19 18055624269049958392
14787075 74 18270971253421519682
15082195 135 17240769466963830118
15537594 2 17274832388810681740
16752209 62 17058910196147181973
17349148 13 13623524666982489450
17492 89 17915193325537619438
17980427 23 15068629287964772622
1813 80 17703525366531147356
21033648 29 18336251427336215940
21033650 10 16950855682865081564
22182313 1 18337380625862292432
22393880 68 18041279851316967454
22950370 63 17561086937998207622
235170 7 18259704506163376660
23557571 272 17749106720730179397
23559900 14 17680122124279598610
23598288 3 16845581880916829945
460360 51 18265327322892429626
46194498 28 18187936139734783524
497634 4 18340503195993317769

> <PUBCHEM_SHAPE_MULTIPOLES>
603.5
11.28
2.77
2.41
6.07
0.45
0.56
3.02
3.4
0.66
0.03
-3.01
-0.65
3.2

> <PUBCHEM_SHAPE_SELFOVERLAP>
1328.401

> <PUBCHEM_SHAPE_VOLUME>
322.4

> <PUBCHEM_COORDINATE_TYPE>
2
5
10

$$$$
