13556944
  -OEChem-09252020523D

 30 31  0     0  0  0  0  0  0999 V2000
    1.5946   -2.5420    1.2483 Cl  0  0  0  0  0  0  0  0  0  0  0  0
    5.9105    0.2546   -0.3331 Cl  0  0  0  0  0  0  0  0  0  0  0  0
   -3.4312   -3.0273   -0.8328 O   0  0  0  0  0  0  0  0  0  0  0  0
   -3.2613   -1.7366    1.0271 O   0  0  0  0  0  0  0  0  0  0  0  0
    0.0187   -0.2488    0.0151 N   0  0  0  0  0  0  0  0  0  0  0  0
   -2.2656    0.4731   -0.4514 C   0  0  0  0  0  0  0  0  0  0  0  0
   -1.0040    0.7221    0.0892 C   0  0  0  0  0  0  0  0  0  0  0  0
   -2.5756   -0.8243   -1.1243 C   0  0  0  0  0  0  0  0  0  0  0  0
    1.4208   -0.1513   -0.0561 C   0  0  0  0  0  0  0  0  0  0  0  0
   -3.2636    1.4442   -0.3689 C   0  0  0  0  0  0  0  0  0  0  0  0
   -0.7406    1.9421    0.7123 C   0  0  0  0  0  0  0  0  0  0  0  0
   -3.0001    2.6640    0.2543 C   0  0  0  0  0  0  0  0  0  0  0  0
   -1.7386    2.9130    0.7949 C   0  0  0  0  0  0  0  0  0  0  0  0
    2.2505   -1.1431    0.4755 C   0  0  0  0  0  0  0  0  0  0  0  0
    1.9894    0.9660   -0.6739 C   0  0  0  0  0  0  0  0  0  0  0  0
   -3.1167   -1.8778   -0.1795 C   0  0  0  0  0  0  0  0  0  0  0  0
    3.6371   -1.0179    0.3901 C   0  0  0  0  0  0  0  0  0  0  0  0
    3.3759    1.0912   -0.7593 C   0  0  0  0  0  0  0  0  0  0  0  0
    4.1998    0.0992   -0.2273 C   0  0  0  0  0  0  0  0  0  0  0  0
   -1.6960   -1.2270   -1.6386 H   0  0  0  0  0  0  0  0  0  0  0  0
   -3.3333   -0.6572   -1.9009 H   0  0  0  0  0  0  0  0  0  0  0  0
   -0.3135   -1.2043    0.1065 H   0  0  0  0  0  0  0  0  0  0  0  0
   -4.2523    1.2639   -0.7828 H   0  0  0  0  0  0  0  0  0  0  0  0
    0.2233    2.1561    1.1657 H   0  0  0  0  0  0  0  0  0  0  0  0
   -3.7777    3.4193    0.3204 H   0  0  0  0  0  0  0  0  0  0  0  0
   -1.5357    3.8605    1.2854 H   0  0  0  0  0  0  0  0  0  0  0  0
    1.3766    1.7435   -1.1219 H   0  0  0  0  0  0  0  0  0  0  0  0
    4.2817   -1.7905    0.8044 H   0  0  0  0  0  0  0  0  0  0  0  0
    3.8007    1.9641   -1.2483 H   0  0  0  0  0  0  0  0  0  0  0  0
   -3.7810   -3.7106   -0.2220 H   0  0  0  0  0  0  0  0  0  0  0  0
  1 14  1  0  0  0  0
  2 19  1  0  0  0  0
  3 16  1  0  0  0  0
  3 30  1  0  0  0  0
  4 16  2  0  0  0  0
  5  7  1  0  0  0  0
  5  9  1  0  0  0  0
  5 22  1  0  0  0  0
  6  7  1  0  0  0  0
  6  8  1  0  0  0  0
  6 10  2  0  0  0  0
  7 11  2  0  0  0  0
  8 16  1  0  0  0  0
  8 20  1  0  0  0  0
  8 21  1  0  0  0  0
  9 14  2  0  0  0  0
  9 15  1  0  0  0  0
 10 12  1  0  0  0  0
 10 23  1  0  0  0  0
 11 13  1  0  0  0  0
 11 24  1  0  0  0  0
 12 13  2  0  0  0  0
 12 25  1  0  0  0  0
 13 26  1  0  0  0  0
 14 17  1  0  0  0  0
 15 18  2  0  0  0  0
 15 27  1  0  0  0  0
 17 19  2  0  0  0  0
 17 28  1  0  0  0  0
 18 19  1  0  0  0  0
 18 29  1  0  0  0  0
M  END
> <PUBCHEM_COMPOUND_CID>
13556944

> <PUBCHEM_CONFORMER_RMSD>
0.6

> <PUBCHEM_CONFORMER_DIVERSEORDER>
1
36
53
5
65
21
74
2
72
49
64
61
70
56
63
34
57
28
43
17
41
51
46
22
44
60
25
66
40
71
4
27
68
52
3
7
13
47
55
29
19
24
15
23
62
45
12
69
9
26
48
10
30
58
14
32
18
50
54
33
16
20
35
67
42
31
75
39
8
59
38
37
73
6
11

> <PUBCHEM_MMFF94_PARTIAL_CHARGES>
28
1 -0.18
10 -0.15
11 -0.15
12 -0.15
13 -0.15
14 0.18
15 -0.15
16 0.66
17 -0.15
18 -0.15
19 0.18
2 -0.18
22 0.4
23 0.15
24 0.15
25 0.15
26 0.15
27 0.15
28 0.15
29 0.15
3 -0.65
30 0.5
4 -0.57
5 -0.6
6 -0.14
7 0.1
8 0.2
9 0.1

> <PUBCHEM_EFFECTIVE_ROTOR_COUNT>
4

> <PUBCHEM_PHARMACOPHORE_FEATURES>
7
1 3 acceptor
1 4 acceptor
1 5 cation
1 5 donor
3 3 4 16 anion
6 6 7 10 11 12 13 rings
6 9 14 15 17 18 19 rings

> <PUBCHEM_HEAVY_ATOM_COUNT>
19

> <PUBCHEM_ATOM_DEF_STEREO_COUNT>
0

> <PUBCHEM_ATOM_UDEF_STEREO_COUNT>
0

> <PUBCHEM_BOND_DEF_STEREO_COUNT>
0

> <PUBCHEM_BOND_UDEF_STEREO_COUNT>
0

> <PUBCHEM_ISOTOPIC_ATOM_COUNT>
0

> <PUBCHEM_COMPONENT_COUNT>
1

> <PUBCHEM_CACTVS_TAUTO_COUNT>
1

> <PUBCHEM_CONFORMER_ID>
00CEDCD000000001

> <PUBCHEM_MMFF94_ENERGY>
60.0449

> <PUBCHEM_FEATURE_SELFOVERLAP>
35.578

> <PUBCHEM_SHAPE_FINGERPRINT>
10062212 137 18334007268400907362
10366900 7 17631719483230257865
10616163 171 18412262813569001519
12553582 1 18268420416573686183
12714826 92 17846498144829543785
12788726 201 18271233938158883539
13032168 30 18334576862642413922
13538477 17 18339637841539976100
13583140 156 17346020200785119898
13631057 29 18339076090009063478
13760787 19 18336546027885632572
14178342 30 18264473010773275370
14787075 74 17978508959962012996
15279307 12 18263926531729329059
15669948 3 18200582601764483333
16752209 62 18201141192421220311
17349148 13 17967530207783684656
17492 89 18411420596632212110
18927931 339 18272376386226539070
200 152 18261954145244787686
20645476 183 18265329504683068405
21709351 56 18040154020282134772
23402539 116 18410291428486560404
23493267 7 18130228142500222764
23557571 272 17988927751668573060
23558518 356 18261405420444928306
23559900 14 18342446067399907928
23598288 3 18271517620247917199
3312278 4 18410572877176547817
34934 24 18263361395606100264
3545911 37 18338519642736439556
474 4 18041006107392035980
5104073 3 18409445856910943760
7097593 13 18047181956467081242
9709674 26 18129382609521497238

> <PUBCHEM_SHAPE_MULTIPOLES>
378.03
9.09
3.14
1.01
9.24
0.7
-0.06
0.17
1.35
-3.79
-0.65
-0.17
0.23
-1.41

> <PUBCHEM_SHAPE_SELFOVERLAP>
790.042

> <PUBCHEM_SHAPE_VOLUME>
214.7

> <PUBCHEM_COORDINATE_TYPE>
2
5
10

$$$$
