13175121
  -OEChem-09252020523D

 48 51  0     1  0  0  0  0  0999 V2000
    3.9323    1.0281    0.7256 O   0  0  0  0  0  0  0  0  0  0  0  0
   -5.6598   -1.7485    0.9429 O   0  0  0  0  0  0  0  0  0  0  0  0
    5.8992   -1.9162    1.0319 N   0  0  0  0  0  0  0  0  0  0  0  0
    1.9664    0.6053   -0.6944 C   0  0  1  0  0  0  0  0  0  0  0  0
    1.0413    1.1647    0.4196 C   0  0  1  0  0  0  0  0  0  0  0  0
    3.1229   -0.0093    0.1543 C   0  0  2  0  0  0  0  0  0  0  0  0
   -0.3763    1.5626   -0.0598 C   0  0  1  0  0  0  0  0  0  0  0  0
    1.0838    0.0755    1.5111 C   0  0  0  0  0  0  0  0  0  0  0  0
    1.2197   -0.4708   -1.5289 C   0  0  0  0  0  0  0  0  0  0  0  0
    2.4006   -0.6894    1.3262 C   0  0  0  0  0  0  0  0  0  0  0  0
   -1.0347    0.4673   -0.8974 C   0  0  0  0  0  0  0  0  0  0  0  0
   -0.1522   -0.0170   -2.0271 C   0  0  0  0  0  0  0  0  0  0  0  0
    2.4564    1.7345   -1.6208 C   0  0  0  0  0  0  0  0  0  0  0  0
   -1.2354    2.0491    1.1255 C   0  0  0  0  0  0  0  0  0  0  0  0
    4.0545   -0.9709   -0.5790 C   0  0  0  0  0  0  0  0  0  0  0  0
   -2.2988    0.0393   -0.6660 C   0  0  0  0  0  0  0  0  0  0  0  0
   -2.7119    2.0760    0.7617 C   0  0  0  0  0  0  0  0  0  0  0  0
   -3.1425    0.6953    0.3395 C   0  0  0  0  0  0  0  0  0  0  0  0
   -3.0063   -1.0634   -1.4215 C   0  0  0  0  0  0  0  0  0  0  0  0
    5.0825   -1.4958    0.3230 C   0  0  0  0  0  0  0  0  0  0  0  0
   -4.2489    0.1314    0.8499 C   0  0  0  0  0  0  0  0  0  0  0  0
   -3.7432   -2.0055   -0.4757 C   0  0  0  0  0  0  0  0  0  0  0  0
   -4.6495   -1.2424    0.4597 C   0  0  0  0  0  0  0  0  0  0  0  0
    1.5045    2.0669    0.8467 H   0  0  0  0  0  0  0  0  0  0  0  0
   -0.2666    2.4246   -0.7344 H   0  0  0  0  0  0  0  0  0  0  0  0
    0.2423   -0.6218    1.4309 H   0  0  0  0  0  0  0  0  0  0  0  0
    1.0370    0.5253    2.5091 H   0  0  0  0  0  0  0  0  0  0  0  0
    1.0769   -1.3884   -0.9449 H   0  0  0  0  0  0  0  0  0  0  0  0
    1.8292   -0.7563   -2.3958 H   0  0  0  0  0  0  0  0  0  0  0  0
    2.9851   -0.6589    2.2529 H   0  0  0  0  0  0  0  0  0  0  0  0
    2.1711   -1.7398    1.1112 H   0  0  0  0  0  0  0  0  0  0  0  0
   -0.5945   -0.8393   -2.5933 H   0  0  0  0  0  0  0  0  0  0  0  0
   -0.0376    0.7996   -2.7499 H   0  0  0  0  0  0  0  0  0  0  0  0
    3.1925    1.3595   -2.3398 H   0  0  0  0  0  0  0  0  0  0  0  0
    1.6382    2.1823   -2.1924 H   0  0  0  0  0  0  0  0  0  0  0  0
    2.9238    2.5501   -1.0589 H   0  0  0  0  0  0  0  0  0  0  0  0
   -0.9078    3.0515    1.4270 H   0  0  0  0  0  0  0  0  0  0  0  0
   -1.1070    1.4049    2.0035 H   0  0  0  0  0  0  0  0  0  0  0  0
    4.5529   -0.4528   -1.4068 H   0  0  0  0  0  0  0  0  0  0  0  0
    3.5013   -1.8112   -1.0116 H   0  0  0  0  0  0  0  0  0  0  0  0
   -2.8886    2.7848   -0.0572 H   0  0  0  0  0  0  0  0  0  0  0  0
   -3.2906    2.4317    1.6225 H   0  0  0  0  0  0  0  0  0  0  0  0
    4.4961    1.3956    0.0241 H   0  0  0  0  0  0  0  0  0  0  0  0
   -3.7234   -0.6048   -2.1156 H   0  0  0  0  0  0  0  0  0  0  0  0
   -2.3283   -1.6705   -2.0252 H   0  0  0  0  0  0  0  0  0  0  0  0
   -4.8705    0.6402    1.5786 H   0  0  0  0  0  0  0  0  0  0  0  0
   -3.0379   -2.5866    0.1294 H   0  0  0  0  0  0  0  0  0  0  0  0
   -4.3531   -2.7014   -1.0620 H   0  0  0  0  0  0  0  0  0  0  0  0
  1  6  1  0  0  0  0
  1 43  1  0  0  0  0
  2 23  2  0  0  0  0
  3 20  3  0  0  0  0
  4  5  1  0  0  0  0
  4  6  1  0  0  0  0
  4  9  1  0  0  0  0
  4 13  1  0  0  0  0
  5  7  1  0  0  0  0
  5  8  1  0  0  0  0
  5 24  1  0  0  0  0
  6 10  1  0  0  0  0
  6 15  1  0  0  0  0
  7 11  1  0  0  0  0
  7 14  1  0  0  0  0
  7 25  1  0  0  0  0
  8 10  1  0  0  0  0
  8 26  1  0  0  0  0
  8 27  1  0  0  0  0
  9 12  1  0  0  0  0
  9 28  1  0  0  0  0
  9 29  1  0  0  0  0
 10 30  1  0  0  0  0
 10 31  1  0  0  0  0
 11 12  1  0  0  0  0
 11 16  2  0  0  0  0
 12 32  1  0  0  0  0
 12 33  1  0  0  0  0
 13 34  1  0  0  0  0
 13 35  1  0  0  0  0
 13 36  1  0  0  0  0
 14 17  1  0  0  0  0
 14 37  1  0  0  0  0
 14 38  1  0  0  0  0
 15 20  1  0  0  0  0
 15 39  1  0  0  0  0
 15 40  1  0  0  0  0
 16 18  1  0  0  0  0
 16 19  1  0  0  0  0
 17 18  1  0  0  0  0
 17 41  1  0  0  0  0
 17 42  1  0  0  0  0
 18 21  2  0  0  0  0
 19 22  1  0  0  0  0
 19 44  1  0  0  0  0
 19 45  1  0  0  0  0
 21 23  1  0  0  0  0
 21 46  1  0  0  0  0
 22 23  1  0  0  0  0
 22 47  1  0  0  0  0
 22 48  1  0  0  0  0
M  END
> <PUBCHEM_COMPOUND_CID>
13175121

> <PUBCHEM_CONFORMER_RMSD>
0.6

> <PUBCHEM_CONFORMER_DIVERSEORDER>
1
5
44
14
13
29
33
38
39
64
49
83
42
79
15
73
82
59
81
26
65
45
41
60
24
62
9
31
69
37
57
19
25
21
75
53
11
47
66
10
3
18
63
74
55
52
80
12
2
61
20
8
17
58
51
76
46
43
7
54
56
67
36
70
23
78
77
40
50
4
72
6
48
35
28
32
16
71
34
68
27
22
30

> <PUBCHEM_MMFF94_PARTIAL_CHARGES>
18
1 -0.68
11 -0.28
12 0.14
15 0.2
16 -0.14
17 0.14
18 -0.14
19 0.14
2 -0.57
20 0.36
21 -0.14
22 0.06
23 0.49
3 -0.56
43 0.4
46 0.15
6 0.28
7 0.14

> <PUBCHEM_EFFECTIVE_ROTOR_COUNT>
2.8

> <PUBCHEM_PHARMACOPHORE_FEATURES>
8
1 1 acceptor
1 1 donor
1 2 acceptor
1 3 acceptor
5 4 5 6 8 10 rings
6 16 18 19 21 22 23 rings
6 4 5 7 9 11 12 rings
6 7 11 14 16 17 18 rings

> <PUBCHEM_HEAVY_ATOM_COUNT>
23

> <PUBCHEM_ATOM_DEF_STEREO_COUNT>
0

> <PUBCHEM_ATOM_UDEF_STEREO_COUNT>
4

> <PUBCHEM_BOND_DEF_STEREO_COUNT>
0

> <PUBCHEM_BOND_UDEF_STEREO_COUNT>
0

> <PUBCHEM_ISOTOPIC_ATOM_COUNT>
0

> <PUBCHEM_COMPONENT_COUNT>
1

> <PUBCHEM_CACTVS_TAUTO_COUNT>
5

> <PUBCHEM_CONFORMER_ID>
00C9095100000001

> <PUBCHEM_MMFF94_ENERGY>
61.1974

> <PUBCHEM_FEATURE_SELFOVERLAP>
40.813

> <PUBCHEM_SHAPE_FINGERPRINT>
11132069 177 16917354740345542549
11796584 16 17968088777066084555
12236239 1 18260271841004373077
12553582 1 18059582455143182573
12633257 1 16271920545236275387
12670546 177 13262395565992260343
12788726 201 18198926823611620633
12892183 10 18130779011327968194
12916754 54 18040718073615123325
13009979 54 18341059531903221300
13140716 1 17417245580252777817
13224815 77 17274822488916495453
13288520 33 18187365385324378014
13583140 156 17846203411220380968
13675066 3 17131545051623513622
13726171 33 17772501038045846473
13911987 19 15141263009021169974
14178342 30 17773612537095435689
14341114 176 18272092711968077058
14420673 8 17769382617433016526
14787075 74 18192989537809359488
15209289 33 18409167696916242611
15209294 21 14333404553835843094
15238133 3 14476966717859918250
16945 1 17775571927046011861
17349148 13 17749389239615837680
17357779 13 15647058131531791660
17492 54 11314024682216521751
17780758 139 18270110211125795226
1813 80 18187657889719037804
18186145 218 13840259308529181613
19377110 9 18342731958182864624
193927 3 18260278446669505051
19422 9 18408891740977619661
19784866 240 18040156201624477591
200 152 17167866339572213132
20261772 1 17489308624366645989
20871999 31 13479131276732088511
21033648 29 15769510763514417331
21069387 34 17603596243782282941
21637258 2 18259978275552390426
22393880 68 16732972128913835095
23379529 103 16372436863493009035
23402539 116 17677614164395183656
23559900 14 17701001858474771229
2748010 2 17487920912223734285
2838139 119 12246025623902784043
296302 2 10735873980419497364
312423 11 18334869328282523669
3286 77 18260832600767190196
465052 167 18269565004188883507
5104073 3 18131067117502147688
57724786 102 14261053425381485882
70251023 43 17530684311834687868
7970288 3 18260830392769541058

> <PUBCHEM_SHAPE_MULTIPOLES>
456.61
10.51
2.08
1.61
2.01
0.16
-0.4
-7.24
3.76
-0.73
0.3
0.41
-0.03
-0.93

> <PUBCHEM_SHAPE_SELFOVERLAP>
988.052

> <PUBCHEM_SHAPE_VOLUME>
246.3

> <PUBCHEM_COORDINATE_TYPE>
2
5
10

$$$$
