3148
  -OEChem-09252020523D

 44 48  0     1  0  0  0  0  0999 V2000
   -0.3353    0.8821   -0.2054 O   0  0  0  0  0  0  0  0  0  0  0  0
    6.7382   -0.8412   -0.0766 O   0  0  0  0  0  0  0  0  0  0  0  0
   -1.0490   -1.3047   -0.2916 O   0  0  0  0  0  0  0  0  0  0  0  0
    3.6232    0.5574    1.0438 N   0  0  0  0  0  0  0  0  0  0  0  0
   -4.2181    1.9388    0.1200 N   0  0  0  0  0  0  0  0  0  0  0  0
    2.8897   -0.7311    0.9383 C   0  0  2  0  0  0  0  0  0  0  0  0
    3.4105    1.3405   -0.2018 C   0  0  1  0  0  0  0  0  0  0  0  0
    4.5067   -0.7866   -0.9951 C   0  0  0  0  0  0  0  0  0  0  0  0
    3.4215   -1.5719   -0.2506 C   0  0  0  0  0  0  0  0  0  0  0  0
    3.9623    0.5774   -1.4333 C   0  0  0  0  0  0  0  0  0  0  0  0
    1.3803   -0.4587    0.8433 C   0  0  0  0  0  0  0  0  0  0  0  0
    1.9212    1.6926   -0.3405 C   0  0  0  0  0  0  0  0  0  0  0  0
    1.0190    0.4600   -0.3236 C   0  0  0  0  0  0  0  0  0  0  0  0
    5.0678    0.3001    1.2360 C   0  0  0  0  0  0  0  0  0  0  0  0
    5.5700   -0.4846    0.0400 C   0  0  0  0  0  0  0  0  0  0  0  0
   -1.2700   -0.1070   -0.2029 C   0  0  0  0  0  0  0  0  0  0  0  0
   -2.6356    0.4620   -0.0764 C   0  0  0  0  0  0  0  0  0  0  0  0
   -3.8311   -0.2525   -0.0415 C   0  0  0  0  0  0  0  0  0  0  0  0
   -2.8610    1.7883    0.0207 C   0  0  0  0  0  0  0  0  0  0  0  0
   -4.8360    0.7090    0.0847 C   0  0  0  0  0  0  0  0  0  0  0  0
   -4.1968   -1.6119   -0.1014 C   0  0  0  0  0  0  0  0  0  0  0  0
   -6.1939    0.3776    0.1542 C   0  0  0  0  0  0  0  0  0  0  0  0
   -5.5511   -1.9583   -0.0331 C   0  0  0  0  0  0  0  0  0  0  0  0
   -6.5327   -0.9772    0.0928 C   0  0  0  0  0  0  0  0  0  0  0  0
    3.0479   -1.3009    1.8640 H   0  0  0  0  0  0  0  0  0  0  0  0
    3.9500    2.2932   -0.1148 H   0  0  0  0  0  0  0  0  0  0  0  0
    4.9278   -1.3523   -1.8305 H   0  0  0  0  0  0  0  0  0  0  0  0
    2.6208   -1.8549   -0.9427 H   0  0  0  0  0  0  0  0  0  0  0  0
    3.8517   -2.5039    0.1386 H   0  0  0  0  0  0  0  0  0  0  0  0
    4.7754    1.1650   -1.8792 H   0  0  0  0  0  0  0  0  0  0  0  0
    3.2008    0.4467   -2.2098 H   0  0  0  0  0  0  0  0  0  0  0  0
    0.8803   -1.4291    0.7927 H   0  0  0  0  0  0  0  0  0  0  0  0
    1.0347   -0.0018    1.7814 H   0  0  0  0  0  0  0  0  0  0  0  0
    1.6284    2.3653    0.4777 H   0  0  0  0  0  0  0  0  0  0  0  0
    1.7458    2.2642   -1.2607 H   0  0  0  0  0  0  0  0  0  0  0  0
    1.1266   -0.0725   -1.2763 H   0  0  0  0  0  0  0  0  0  0  0  0
    5.2360   -0.2801    2.1490 H   0  0  0  0  0  0  0  0  0  0  0  0
    5.6188    1.2431    1.3105 H   0  0  0  0  0  0  0  0  0  0  0  0
   -2.2166    2.6565    0.0317 H   0  0  0  0  0  0  0  0  0  0  0  0
   -4.6979    2.8241    0.2067 H   0  0  0  0  0  0  0  0  0  0  0  0
   -3.4499   -2.3941   -0.1993 H   0  0  0  0  0  0  0  0  0  0  0  0
   -6.9588    1.1407    0.2522 H   0  0  0  0  0  0  0  0  0  0  0  0
   -5.8392   -3.0052   -0.0788 H   0  0  0  0  0  0  0  0  0  0  0  0
   -7.5787   -1.2687    0.1441 H   0  0  0  0  0  0  0  0  0  0  0  0
  1 13  1  0  0  0  0
  1 16  1  0  0  0  0
  2 15  2  0  0  0  0
  3 16  2  0  0  0  0
  4  6  1  0  0  0  0
  4  7  1  0  0  0  0
  4 14  1  0  0  0  0
  5 19  1  0  0  0  0
  5 20  1  0  0  0  0
  5 40  1  0  0  0  0
  6  9  1  0  0  0  0
  6 11  1  0  0  0  0
  6 25  1  0  0  0  0
  7 10  1  0  0  0  0
  7 12  1  0  0  0  0
  7 26  1  0  0  0  0
  8  9  1  0  0  0  0
  8 10  1  0  0  0  0
  8 15  1  0  0  0  0
  8 27  1  0  0  0  0
  9 28  1  0  0  0  0
  9 29  1  0  0  0  0
 10 30  1  0  0  0  0
 10 31  1  0  0  0  0
 11 13  1  0  0  0  0
 11 32  1  0  0  0  0
 11 33  1  0  0  0  0
 12 13  1  0  0  0  0
 12 34  1  0  0  0  0
 12 35  1  0  0  0  0
 13 36  1  0  0  0  0
 14 15  1  0  0  0  0
 14 37  1  0  0  0  0
 14 38  1  0  0  0  0
 16 17  1  0  0  0  0
 17 18  1  0  0  0  0
 17 19  2  0  0  0  0
 18 20  1  0  0  0  0
 18 21  2  0  0  0  0
 19 39  1  0  0  0  0
 20 22  2  0  0  0  0
 21 23  1  0  0  0  0
 21 41  1  0  0  0  0
 22 24  1  0  0  0  0
 22 42  1  0  0  0  0
 23 24  2  0  0  0  0
 23 43  1  0  0  0  0
 24 44  1  0  0  0  0
M  END
> <PUBCHEM_COMPOUND_CID>
3148

> <PUBCHEM_CONFORMER_RMSD>
0.8

> <PUBCHEM_CONFORMER_DIVERSEORDER>
1
32
12
13
27
29
38
31
22
10
15
16
28
14
30
33
7
2
21
26
19
8
37
34
18
17
36
35
20
3
25
39
24
5
6
11
4
9
23

> <PUBCHEM_MMFF94_PARTIAL_CHARGES>
25
1 -0.43
13 0.28
14 0.33
15 0.45
16 0.81
17 -0.09
19 -0.3
2 -0.57
20 -0.15
21 -0.15
22 -0.15
23 -0.15
24 -0.15
3 -0.57
39 0.15
4 -0.81
40 0.27
41 0.15
42 0.15
43 0.15
44 0.15
5 0.03
6 0.27
7 0.27
8 0.06

> <PUBCHEM_EFFECTIVE_ROTOR_COUNT>
4.2

> <PUBCHEM_PHARMACOPHORE_FEATURES>
9
1 2 acceptor
1 3 acceptor
1 4 cation
1 5 cation
1 5 donor
5 5 17 18 19 20 rings
6 18 20 21 22 23 24 rings
6 4 6 7 11 12 13 rings
8 4 6 7 8 9 10 14 15 rings

> <PUBCHEM_HEAVY_ATOM_COUNT>
24

> <PUBCHEM_ATOM_DEF_STEREO_COUNT>
0

> <PUBCHEM_ATOM_UDEF_STEREO_COUNT>
2

> <PUBCHEM_BOND_DEF_STEREO_COUNT>
0

> <PUBCHEM_BOND_UDEF_STEREO_COUNT>
0

> <PUBCHEM_ISOTOPIC_ATOM_COUNT>
0

> <PUBCHEM_COMPONENT_COUNT>
1

> <PUBCHEM_CACTVS_TAUTO_COUNT>
4

> <PUBCHEM_CONFORMER_ID>
00000C4C00000001

> <PUBCHEM_MMFF94_ENERGY>
57.3373

> <PUBCHEM_FEATURE_SELFOVERLAP>
46.161

> <PUBCHEM_SHAPE_FINGERPRINT>
10 15 18201426022299918624
10366900 7 17095243613721809481
10595046 47 18335142002855186509
11315181 36 18410014343045820241
11524674 6 16773798117399401815
11545043 162 18131911550769032137
12107183 9 17686614646078578681
12166972 35 18410576205819102056
12236239 1 18187085056977445429
12516196 113 18273213105674404185
12596602 18 18059856181455475120
12916748 109 18272652346096203529
13073987 5 17489029253960931090
13167823 11 18409166627927834519
13288520 33 18410575094097006357
13685833 64 18273217482747082646
14251764 18 18334577966755015908
14341114 176 18342741827548179665
14528608 73 17967536795725478933
14849402 71 18265894838607778328
14933364 13 18273215300333938777
15183329 4 18260547827334554915
15348495 7 17560796697198915875
15788980 27 18260832600730019905
17349148 13 17822015319693495397
17834072 33 18259705614127866661
17844677 252 18272656757233604865
17857418 61 18261108582417204723
1813 80 17385726876398140492
18222031 100 17675923213647455572
18681886 176 18410290337512256136
18927931 339 18410859876357011567
19489759 90 18408886231125091257
21033648 29 17131536259435192545
21054139 6 18040995159098535642
21150785 3 17458350770537677342
21267235 1 18409172112121010547
21623969 137 17060624395020510518
2297311 6 18271813410688118149
23035841 295 18408325497564776715
23402539 116 18410569609392140573
23522609 53 17970658253324020277
23559900 14 18337386175477179025
23569943 247 17901385598386824242
239999 70 18272654554342318494
3004659 81 18187083966419755532
335352 9 18410008833125006173
338550 245 18411983597834915718
34797466 226 17988652929569927908
3545911 37 18342175548657279363
4073 2 18114187474747727330
4214541 1 18410293597376745677
4325135 7 18186239524067135399
4340502 62 17131828773015969134
465052 167 18342182184445217990
5104073 3 18201433627964352402
542803 24 13912319080004531341
59755656 215 18411700963475400175
67856867 119 18262519320324006661
7495541 125 17846497083993948329

> <PUBCHEM_SHAPE_MULTIPOLES>
466.34
17.01
1.76
0.93
6.26
0.08
-0.01
-4.17
-0.44
1.33
0.1
-1.2
0.01
-0.12

> <PUBCHEM_SHAPE_SELFOVERLAP>
1045.994

> <PUBCHEM_SHAPE_VOLUME>
245.4

> <PUBCHEM_COORDINATE_TYPE>
2
5
10

$$$$
