3162
  -OEChem-09252020523D

 42 43  0     1  0  0  0  0  0999 V2000
    0.5131   -1.1100    0.0602 O   0  0  0  0  0  0  0  0  0  0  0  0
    4.1935   -1.2932    0.1429 N   0  0  0  0  0  0  0  0  0  0  0  0
    0.0896    2.0443    1.1274 N   0  0  0  0  0  0  0  0  0  0  0  0
   -0.4700   -0.2597    0.6346 C   0  0  2  0  0  0  0  0  0  0  0  0
   -1.8725   -0.7085    0.2049 C   0  0  0  0  0  0  0  0  0  0  0  0
   -0.1724    1.1656    0.1576 C   0  0  0  0  0  0  0  0  0  0  0  0
   -0.3111   -0.4867    2.1514 C   0  0  0  0  0  0  0  0  0  0  0  0
    1.8263   -0.7199    0.4399 C   0  0  0  0  0  0  0  0  0  0  0  0
    2.8237   -1.6678   -0.2068 C   0  0  0  0  0  0  0  0  0  0  0  0
   -2.9550    0.0147    0.6448 C   0  0  0  0  0  0  0  0  0  0  0  0
   -1.9877   -1.8146   -0.6024 C   0  0  0  0  0  0  0  0  0  0  0  0
   -0.2004    1.4084   -1.1870 C   0  0  0  0  0  0  0  0  0  0  0  0
   -4.2303   -0.3932    0.2539 C   0  0  0  0  0  0  0  0  0  0  0  0
   -3.2631   -2.2224   -0.9932 C   0  0  0  0  0  0  0  0  0  0  0  0
    0.0741    2.7114   -1.5870 C   0  0  0  0  0  0  0  0  0  0  0  0
   -4.3845   -1.5116   -0.5651 C   0  0  0  0  0  0  0  0  0  0  0  0
    4.4711    0.0796   -0.2781 C   0  0  0  0  0  0  0  0  0  0  0  0
    5.1479   -2.2180   -0.4675 C   0  0  0  0  0  0  0  0  0  0  0  0
    0.3514    3.3001    0.7007 C   0  0  0  0  0  0  0  0  0  0  0  0
    0.3562    3.6814   -0.6314 C   0  0  0  0  0  0  0  0  0  0  0  0
    0.5666   -0.0060    2.5954 H   0  0  0  0  0  0  0  0  0  0  0  0
   -0.2620   -1.5562    2.3922 H   0  0  0  0  0  0  0  0  0  0  0  0
   -1.1585   -0.0713    2.7111 H   0  0  0  0  0  0  0  0  0  0  0  0
    2.0252    0.2981    0.1076 H   0  0  0  0  0  0  0  0  0  0  0  0
    1.9925   -0.7932    1.5173 H   0  0  0  0  0  0  0  0  0  0  0  0
    2.6100   -2.6876    0.1388 H   0  0  0  0  0  0  0  0  0  0  0  0
    2.6703   -1.6776   -1.2946 H   0  0  0  0  0  0  0  0  0  0  0  0
   -2.8513    0.8883    1.2804 H   0  0  0  0  0  0  0  0  0  0  0  0
   -1.1400   -2.3922   -0.9541 H   0  0  0  0  0  0  0  0  0  0  0  0
   -0.4144    0.6459   -1.9264 H   0  0  0  0  0  0  0  0  0  0  0  0
   -5.1034    0.1605    0.5867 H   0  0  0  0  0  0  0  0  0  0  0  0
   -3.3837   -3.0933   -1.6309 H   0  0  0  0  0  0  0  0  0  0  0  0
    0.0698    2.9704   -2.6415 H   0  0  0  0  0  0  0  0  0  0  0  0
   -5.3774   -1.8291   -0.8696 H   0  0  0  0  0  0  0  0  0  0  0  0
    3.9915    0.8138    0.3767 H   0  0  0  0  0  0  0  0  0  0  0  0
    4.1810    0.2696   -1.3180 H   0  0  0  0  0  0  0  0  0  0  0  0
    5.5437    0.2946   -0.1925 H   0  0  0  0  0  0  0  0  0  0  0  0
    6.1711   -1.9766   -0.1584 H   0  0  0  0  0  0  0  0  0  0  0  0
    5.1035   -2.1959   -1.5625 H   0  0  0  0  0  0  0  0  0  0  0  0
    4.9561   -3.2444   -0.1350 H   0  0  0  0  0  0  0  0  0  0  0  0
    0.5656    4.0188    1.4849 H   0  0  0  0  0  0  0  0  0  0  0  0
    0.5737    4.7033   -0.9202 H   0  0  0  0  0  0  0  0  0  0  0  0
  1  4  1  0  0  0  0
  1  8  1  0  0  0  0
  2  9  1  0  0  0  0
  2 17  1  0  0  0  0
  2 18  1  0  0  0  0
  3  6  1  0  0  0  0
  3 19  2  0  0  0  0
  4  5  1  0  0  0  0
  4  6  1  0  0  0  0
  4  7  1  0  0  0  0
  5 10  2  0  0  0  0
  5 11  1  0  0  0  0
  6 12  2  0  0  0  0
  7 21  1  0  0  0  0
  7 22  1  0  0  0  0
  7 23  1  0  0  0  0
  8  9  1  0  0  0  0
  8 24  1  0  0  0  0
  8 25  1  0  0  0  0
  9 26  1  0  0  0  0
  9 27  1  0  0  0  0
 10 13  1  0  0  0  0
 10 28  1  0  0  0  0
 11 14  2  0  0  0  0
 11 29  1  0  0  0  0
 12 15  1  0  0  0  0
 12 30  1  0  0  0  0
 13 16  2  0  0  0  0
 13 31  1  0  0  0  0
 14 16  1  0  0  0  0
 14 32  1  0  0  0  0
 15 20  2  0  0  0  0
 15 33  1  0  0  0  0
 16 34  1  0  0  0  0
 17 35  1  0  0  0  0
 17 36  1  0  0  0  0
 17 37  1  0  0  0  0
 18 38  1  0  0  0  0
 18 39  1  0  0  0  0
 18 40  1  0  0  0  0
 19 20  1  0  0  0  0
 19 41  1  0  0  0  0
 20 42  1  0  0  0  0
M  END
> <PUBCHEM_COMPOUND_CID>
3162

> <PUBCHEM_CONFORMER_RMSD>
0.8

> <PUBCHEM_CONFORMER_DIVERSEORDER>
5
15
13
25
23
24
29
30
33
10
22
4
28
32
31
8
26
2
27
16
6
18
17
11
9
20
14
12
3
19
1
21
7

> <PUBCHEM_MMFF94_PARTIAL_CHARGES>
28
1 -0.56
10 -0.15
11 -0.15
12 -0.15
13 -0.15
14 -0.15
15 -0.15
16 -0.15
17 0.27
18 0.27
19 0.16
2 -0.81
20 -0.15
28 0.15
29 0.15
3 -0.62
30 0.15
31 0.15
32 0.15
33 0.15
34 0.15
4 0.57
41 0.15
42 0.15
5 -0.14
6 0.17
8 0.28
9 0.27

> <PUBCHEM_EFFECTIVE_ROTOR_COUNT>
6

> <PUBCHEM_PHARMACOPHORE_FEATURES>
5
1 1 acceptor
1 2 cation
1 3 acceptor
6 3 6 12 15 19 20 rings
6 5 10 11 13 14 16 rings

> <PUBCHEM_HEAVY_ATOM_COUNT>
20

> <PUBCHEM_ATOM_DEF_STEREO_COUNT>
0

> <PUBCHEM_ATOM_UDEF_STEREO_COUNT>
1

> <PUBCHEM_BOND_DEF_STEREO_COUNT>
0

> <PUBCHEM_BOND_UDEF_STEREO_COUNT>
0

> <PUBCHEM_ISOTOPIC_ATOM_COUNT>
0

> <PUBCHEM_COMPONENT_COUNT>
1

> <PUBCHEM_CACTVS_TAUTO_COUNT>
1

> <PUBCHEM_CONFORMER_ID>
00000C5A00000005

> <PUBCHEM_MMFF94_ENERGY>
73.6839

> <PUBCHEM_FEATURE_SELFOVERLAP>
25.371

> <PUBCHEM_SHAPE_FINGERPRINT>
10922049 32 8862942788053099532
11045515 52 18334575737345099556
11101153 10 18335149687722583564
12553582 1 18336253574851843915
12788726 201 18116709612893717970
12916754 54 18200597986986515266
13004483 165 18339354167629947070
13009979 54 18130797797525594307
13132413 78 18411704270563086789
13134695 92 18340768255673887285
13149001 5 17750522955888886115
13590594 115 18335709317250216001
13681431 1 18262240048390776824
14170010 4 18338794636934242857
14178000 29 18341889735822024927
14181834 199 18197505227553033013
14251757 17 16153712067440346316
14347332 77 18193276296118388758
14790565 3 17835241147348908985
14910302 57 17771922540927518054
14955137 171 18267043737757717659
15848702 151 18339634663274505713
15849732 13 18270131102326784129
167882 2 17974571604633819308
16945 1 18192151714285841009
17357779 13 18266719368647079765
17980427 23 17632864126986283945
1813 80 18335410296598228538
187816 3 17603872178135494794
200 152 18260549992030103914
20600515 1 18131642174604424431
20671657 53 18341614857994065807
21029758 27 18408047307779228419
21041028 32 18262537934965273905
21330990 113 18057611957979897651
21339142 126 18266178335948900602
21339142 36 18337946788377235844
21452121 71 18200882879960205953
21524375 3 17033298482076175313
23175994 123 18113628888723586987
23352939 185 18343304781770188280
23402539 116 18335983073701041130
23419403 2 17915996062908326616
23557571 272 18340492149648883390
23559900 14 17916855932561674803
23566358 27 17975421523016948675
25147074 1 17915471704058894795
283562 15 18189898621761073770
4409770 3 18047741612259363725
497634 4 17703239404115166850
532947 4 18051138291783906708
57262259 84 18338514115018317988
6443956 14 18339358690209475636
6992083 37 18271539602190874179
70251023 43 18337113371955179570
7164475 11 18117831106533444658
7364860 26 18124873710173371945
7399639 24 18201706333488574178
81228 2 18118704126991310322

> <PUBCHEM_SHAPE_MULTIPOLES>
395.76
7.67
3.73
1.31
4.69
3.92
0.27
-8.33
-1.48
1.32
-1
-0.31
0.36
-0.35

> <PUBCHEM_SHAPE_SELFOVERLAP>
833.117

> <PUBCHEM_SHAPE_VOLUME>
223.4

> <PUBCHEM_COORDINATE_TYPE>
2
5
10

$$$$
