3268
  -OEChem-09252020533D

 65 68  0     1  0  0  0  0  0999 V2000
    8.2333    1.2847    1.5428 Cl  0  0  0  0  0  0  0  0  0  0  0  0
    6.0610   -4.6754   -1.5081 Cl  0  0  0  0  0  0  0  0  0  0  0  0
   -5.5430   -2.8770    0.5459 P   0  0  0  0  0  0  0  0  0  0  0  0
   -4.7152   -1.5134    0.8257 O   0  0  0  0  0  0  0  0  0  0  0  0
   -5.9505   -3.3648    2.0328 O   0  0  0  0  0  0  0  0  0  0  0  0
   -6.9439   -2.3555   -0.0713 O   0  0  0  0  0  0  0  0  0  0  0  0
   -4.8188   -3.8994   -0.2804 O   0  0  0  0  0  0  0  0  0  0  0  0
    3.7456    0.7842    0.2083 O   0  0  0  0  0  0  0  0  0  0  0  0
    2.9394   -1.3814    0.0893 O   0  0  0  0  0  0  0  0  0  0  0  0
    5.2394   -1.0360    0.0833 N   0  0  0  0  0  0  0  0  0  0  0  0
   -3.9625    0.7283    0.0800 C   0  0  1  0  0  0  0  0  0  0  0  0
   -3.1246    1.1600   -1.1463 C   0  0  1  0  0  0  0  0  0  0  0  0
   -2.4136    2.5239   -0.9532 C   0  0  1  0  0  0  0  0  0  0  0  0
   -1.6360    2.6889    0.3772 C   0  0  1  0  0  0  0  0  0  0  0  0
   -4.3016   -0.7345   -0.2818 C   0  0  1  0  0  0  0  0  0  0  0  0
   -3.1297    0.8520    1.3776 C   0  0  0  0  0  0  0  0  0  0  0  0
   -2.2569   -0.0772   -1.4348 C   0  0  0  0  0  0  0  0  0  0  0  0
   -2.5253    2.2439    1.5582 C   0  0  0  0  0  0  0  0  0  0  0  0
   -3.0445   -1.2924   -0.9401 C   0  0  0  0  0  0  0  0  0  0  0  0
   -1.5507    2.9730   -2.1361 C   0  0  0  0  0  0  0  0  0  0  0  0
   -5.2686    1.5328    0.2081 C   0  0  0  0  0  0  0  0  0  0  0  0
   -0.2167    2.1340    0.3274 C   0  0  0  0  0  0  0  0  0  0  0  0
   -0.2006    2.2770   -2.2298 C   0  0  0  0  0  0  0  0  0  0  0  0
    0.4604    2.0002   -0.9039 C   0  0  0  0  0  0  0  0  0  0  0  0
    0.4945    1.8422    1.5056 C   0  0  0  0  0  0  0  0  0  0  0  0
    1.7886    1.5356   -0.9288 C   0  0  0  0  0  0  0  0  0  0  0  0
    1.8146    1.3868    1.4673 C   0  0  0  0  0  0  0  0  0  0  0  0
    2.4611    1.2290    0.2495 C   0  0  0  0  0  0  0  0  0  0  0  0
    3.9044   -0.6187    0.1234 C   0  0  0  0  0  0  0  0  0  0  0  0
    6.3770   -0.1227    0.1205 C   0  0  0  0  0  0  0  0  0  0  0  0
    5.5607   -2.4533   -0.0044 C   0  0  0  0  0  0  0  0  0  0  0  0
    6.8494    0.1637    1.5359 C   0  0  0  0  0  0  0  0  0  0  0  0
    5.6732   -2.9385   -1.4398 C   0  0  0  0  0  0  0  0  0  0  0  0
   -3.8017    1.2722   -2.0071 H   0  0  0  0  0  0  0  0  0  0  0  0
   -3.2331    3.2577   -0.9068 H   0  0  0  0  0  0  0  0  0  0  0  0
   -1.4805    3.7704    0.5167 H   0  0  0  0  0  0  0  0  0  0  0  0
   -5.1049   -0.7399   -1.0311 H   0  0  0  0  0  0  0  0  0  0  0  0
   -2.3198    0.1126    1.3921 H   0  0  0  0  0  0  0  0  0  0  0  0
   -3.7600    0.6236    2.2464 H   0  0  0  0  0  0  0  0  0  0  0  0
   -2.0382   -0.1673   -2.5037 H   0  0  0  0  0  0  0  0  0  0  0  0
   -1.3051   -0.0571   -0.9018 H   0  0  0  0  0  0  0  0  0  0  0  0
   -3.3399    2.9712    1.6656 H   0  0  0  0  0  0  0  0  0  0  0  0
   -1.9960    2.2866    2.5141 H   0  0  0  0  0  0  0  0  0  0  0  0
   -3.3044   -1.9561   -1.7722 H   0  0  0  0  0  0  0  0  0  0  0  0
   -2.4459   -1.8845   -0.2383 H   0  0  0  0  0  0  0  0  0  0  0  0
   -2.0959    2.8560   -3.0803 H   0  0  0  0  0  0  0  0  0  0  0  0
   -1.3683    4.0516   -2.0274 H   0  0  0  0  0  0  0  0  0  0  0  0
   -5.8798    1.4427   -0.6973 H   0  0  0  0  0  0  0  0  0  0  0  0
   -5.8702    1.1679    1.0480 H   0  0  0  0  0  0  0  0  0  0  0  0
   -5.0900    2.6001    0.3645 H   0  0  0  0  0  0  0  0  0  0  0  0
   -0.3116    1.3281   -2.7658 H   0  0  0  0  0  0  0  0  0  0  0  0
    0.4645    2.9009   -2.8409 H   0  0  0  0  0  0  0  0  0  0  0  0
    0.0449    1.9739    2.4846 H   0  0  0  0  0  0  0  0  0  0  0  0
    2.2992    1.4126   -1.8821 H   0  0  0  0  0  0  0  0  0  0  0  0
    2.3318    1.1650    2.3971 H   0  0  0  0  0  0  0  0  0  0  0  0
   -6.3895   -4.2351    2.1430 H   0  0  0  0  0  0  0  0  0  0  0  0
   -7.5957   -3.0146   -0.3919 H   0  0  0  0  0  0  0  0  0  0  0  0
    6.0858    0.8168   -0.3631 H   0  0  0  0  0  0  0  0  0  0  0  0
    7.1881   -0.5462   -0.4837 H   0  0  0  0  0  0  0  0  0  0  0  0
    4.7706   -3.0183    0.5052 H   0  0  0  0  0  0  0  0  0  0  0  0
    6.4890   -2.6411    0.5481 H   0  0  0  0  0  0  0  0  0  0  0  0
    6.0519    0.6172    2.1329 H   0  0  0  0  0  0  0  0  0  0  0  0
    7.1652   -0.7541    2.0413 H   0  0  0  0  0  0  0  0  0  0  0  0
    4.7344   -2.7866   -1.9816 H   0  0  0  0  0  0  0  0  0  0  0  0
    6.4611   -2.4031   -1.9784 H   0  0  0  0  0  0  0  0  0  0  0  0
  1 32  1  0  0  0  0
  2 33  1  0  0  0  0
  3  4  1  0  0  0  0
  3  5  1  0  0  0  0
  3  6  1  0  0  0  0
  3  7  2  0  0  0  0
  4 15  1  0  0  0  0
  5 56  1  0  0  0  0
  6 57  1  0  0  0  0
  8 28  1  0  0  0  0
  8 29  1  0  0  0  0
  9 29  2  0  0  0  0
 10 29  1  0  0  0  0
 10 30  1  0  0  0  0
 10 31  1  0  0  0  0
 11 12  1  0  0  0  0
 11 15  1  0  0  0  0
 11 16  1  0  0  0  0
 11 21  1  0  0  0  0
 12 13  1  0  0  0  0
 12 17  1  0  0  0  0
 12 34  1  0  0  0  0
 13 14  1  0  0  0  0
 13 20  1  0  0  0  0
 13 35  1  0  0  0  0
 14 18  1  0  0  0  0
 14 22  1  0  0  0  0
 14 36  1  0  0  0  0
 15 19  1  0  0  0  0
 15 37  1  0  0  0  0
 16 18  1  0  0  0  0
 16 38  1  0  0  0  0
 16 39  1  0  0  0  0
 17 19  1  0  0  0  0
 17 40  1  0  0  0  0
 17 41  1  0  0  0  0
 18 42  1  0  0  0  0
 18 43  1  0  0  0  0
 19 44  1  0  0  0  0
 19 45  1  0  0  0  0
 20 23  1  0  0  0  0
 20 46  1  0  0  0  0
 20 47  1  0  0  0  0
 21 48  1  0  0  0  0
 21 49  1  0  0  0  0
 21 50  1  0  0  0  0
 22 24  2  0  0  0  0
 22 25  1  0  0  0  0
 23 24  1  0  0  0  0
 23 51  1  0  0  0  0
 23 52  1  0  0  0  0
 24 26  1  0  0  0  0
 25 27  2  0  0  0  0
 25 53  1  0  0  0  0
 26 28  2  0  0  0  0
 26 54  1  0  0  0  0
 27 28  1  0  0  0  0
 27 55  1  0  0  0  0
 30 32  1  0  0  0  0
 30 58  1  0  0  0  0
 30 59  1  0  0  0  0
 31 33  1  0  0  0  0
 31 60  1  0  0  0  0
 31 61  1  0  0  0  0
 32 62  1  0  0  0  0
 32 63  1  0  0  0  0
 33 64  1  0  0  0  0
 33 65  1  0  0  0  0
M  END
> <PUBCHEM_COMPOUND_CID>
3268

> <PUBCHEM_CONFORMER_RMSD>
1.2

> <PUBCHEM_CONFORMER_DIVERSEORDER>
1
20
62
58
49
112
118
77
5
98
48
65
117
66
114
8
56
10
4
93
126
82
120
96
32
75
16
42
14
59
21
80
45
115
94
109
100
107
27
55
103
2
72
102
61
127
74
41
35
113
73
119
97
124
50
99
40
78
122
95
38
39
87
76
6
108
60
90
123
70
88
12
106
64
125
28
71
116
11
47
54
83
110
128
105
81
101
91
37
79
34
51
9
104
63
86
30
3
29
85
15
111
24
46
121
19
22
23
7
36
25
44
53
69
92
18
57
84
13
67
26
31
68
17
89
43
33
52

> <PUBCHEM_MMFF94_PARTIAL_CHARGES>
29
1 -0.29
10 -0.66
14 0.14
15 0.28
2 -0.29
22 -0.14
23 0.14
24 -0.14
25 -0.15
26 -0.15
27 -0.15
28 0.08
29 0.78
3 1.51
30 0.3
31 0.3
32 0.29
33 0.29
4 -0.55
5 -0.77
53 0.15
54 0.15
55 0.15
56 0.5
57 0.5
6 -0.77
7 -0.7
8 -0.23
9 -0.57

> <PUBCHEM_EFFECTIVE_ROTOR_COUNT>
10.4

> <PUBCHEM_PHARMACOPHORE_FEATURES>
9
1 5 acceptor
1 6 acceptor
1 7 acceptor
1 9 acceptor
4 3 5 6 7 anion
5 11 12 15 17 19 rings
6 11 12 13 14 16 18 rings
6 13 14 20 22 23 24 rings
6 22 24 25 26 27 28 rings

> <PUBCHEM_HEAVY_ATOM_COUNT>
33

> <PUBCHEM_ATOM_DEF_STEREO_COUNT>
0

> <PUBCHEM_ATOM_UDEF_STEREO_COUNT>
5

> <PUBCHEM_BOND_DEF_STEREO_COUNT>
0

> <PUBCHEM_BOND_UDEF_STEREO_COUNT>
0

> <PUBCHEM_ISOTOPIC_ATOM_COUNT>
0

> <PUBCHEM_COMPONENT_COUNT>
1

> <PUBCHEM_CACTVS_TAUTO_COUNT>
1

> <PUBCHEM_CONFORMER_ID>
00000CC400000001

> <PUBCHEM_MMFF94_ENERGY>
63.7072

> <PUBCHEM_FEATURE_SELFOVERLAP>
45.921

> <PUBCHEM_SHAPE_FINGERPRINT>
10042902 136 18334017198249303133
10391435 84 18409718574027441520
11135609 12 18410007775439405544
11387372 6 18198634224442746879
117089 54 18263656211173901355
12633257 1 16271649000603845441
12717326 120 18261391102026744986
13383661 66 18339655472645282914
1361 4 18411138009538358098
13782708 43 18191023401377771226
14420673 8 18269280062667104543
14556957 393 15213296379205815382
14950920 106 16701736180764259339
15001296 14 18334853875501986650
15064981 113 13479122468186850394
15064986 96 17417821582506583807
15183329 4 12396588378344532160
15510800 12 18408881858479547471
19303781 99 17897719006006543939
20775530 9 18263632013316982347
21033648 29 12966842373880310328
21307412 95 18335415709011292061
21315759 148 18201717324182985400
21756936 100 10807935989816388837
23559900 14 18341317933936316584
4144715 1 18198905817074847128
4280585 95 17748820838974910048
437795 51 17846206813921527512
4435113 14 18270411494735060718
474113 269 18060413639195738343
484985 159 18267585693963808089
56633871 153 18270120253129228647
6201320 221 17337575105656261255
7970288 3 18334859475959920819
9981440 41 9943516436243370237

> <PUBCHEM_SHAPE_MULTIPOLES>
646.52
18.81
4.89
1.84
23.54
5.75
0.24
17.69
-5.52
-1.37
1
0.04
-0.55
4.53

> <PUBCHEM_SHAPE_SELFOVERLAP>
1326.963

> <PUBCHEM_SHAPE_VOLUME>
377.6

> <PUBCHEM_COORDINATE_TYPE>
2
5
10

$$$$
