1892
  -OEChem-09252020533D

 28 29  0     0  0  0  0  0  0999 V2000
   -0.3589   -2.3900   -0.3533 O   0  0  0  0  0  0  0  0  0  0  0  0
    3.6432   -0.0605    0.4034 O   0  0  0  0  0  0  0  0  0  0  0  0
   -3.9752    0.1974    1.2248 O   0  0  0  0  0  0  0  0  0  0  0  0
   -1.6456    0.3066   -0.4966 N   0  0  0  0  0  0  0  0  0  0  0  0
    1.6944    1.1750    0.1036 N   0  0  0  0  0  0  0  0  0  0  0  0
    1.6578   -1.2456    0.0272 N   0  0  0  0  0  0  0  0  0  0  0  0
   -0.5111    2.2094   -0.2462 N   0  0  0  0  0  0  0  0  0  0  0  0
   -0.3447   -0.0493   -0.2836 C   0  0  0  0  0  0  0  0  0  0  0  0
    0.3273    1.1330   -0.1335 C   0  0  0  0  0  0  0  0  0  0  0  0
   -2.7718   -0.5691   -0.7151 C   0  0  0  0  0  0  0  0  0  0  0  0
    0.2616   -1.3393   -0.2162 C   0  0  0  0  0  0  0  0  0  0  0  0
    2.4250   -0.0364    0.1938 C   0  0  0  0  0  0  0  0  0  0  0  0
   -1.6954    1.6764   -0.4652 C   0  0  0  0  0  0  0  0  0  0  0  0
   -3.4644   -0.9636    0.5825 C   0  0  0  0  0  0  0  0  0  0  0  0
    2.3662    2.4595    0.2565 C   0  0  0  0  0  0  0  0  0  0  0  0
    2.3917   -2.5035    0.1179 C   0  0  0  0  0  0  0  0  0  0  0  0
   -3.4725   -0.0248   -1.3603 H   0  0  0  0  0  0  0  0  0  0  0  0
   -2.4369   -1.4479   -1.2726 H   0  0  0  0  0  0  0  0  0  0  0  0
   -2.6152    2.2274   -0.6074 H   0  0  0  0  0  0  0  0  0  0  0  0
   -4.2996   -1.6390    0.3732 H   0  0  0  0  0  0  0  0  0  0  0  0
   -2.7693   -1.4603    1.2673 H   0  0  0  0  0  0  0  0  0  0  0  0
    3.4367    2.3337    0.4378 H   0  0  0  0  0  0  0  0  0  0  0  0
    1.9250    2.9929    1.1040 H   0  0  0  0  0  0  0  0  0  0  0  0
    2.2295    3.0435   -0.6589 H   0  0  0  0  0  0  0  0  0  0  0  0
    1.7522   -3.3786   -0.0166 H   0  0  0  0  0  0  0  0  0  0  0  0
    2.8740   -2.5561    1.0992 H   0  0  0  0  0  0  0  0  0  0  0  0
    3.1742   -2.5069   -0.6475 H   0  0  0  0  0  0  0  0  0  0  0  0
   -4.4109   -0.0976    2.0425 H   0  0  0  0  0  0  0  0  0  0  0  0
  1 11  2  0  0  0  0
  2 12  2  0  0  0  0
  3 14  1  0  0  0  0
  3 28  1  0  0  0  0
  4  8  1  0  0  0  0
  4 10  1  0  0  0  0
  4 13  1  0  0  0  0
  5  9  1  0  0  0  0
  5 12  1  0  0  0  0
  5 15  1  0  0  0  0
  6 11  1  0  0  0  0
  6 12  1  0  0  0  0
  6 16  1  0  0  0  0
  7  9  1  0  0  0  0
  7 13  2  0  0  0  0
  8  9  2  0  0  0  0
  8 11  1  0  0  0  0
 10 14  1  0  0  0  0
 10 17  1  0  0  0  0
 10 18  1  0  0  0  0
 13 19  1  0  0  0  0
 14 20  1  0  0  0  0
 14 21  1  0  0  0  0
 15 22  1  0  0  0  0
 15 23  1  0  0  0  0
 15 24  1  0  0  0  0
 16 25  1  0  0  0  0
 16 26  1  0  0  0  0
 16 27  1  0  0  0  0
M  END
> <PUBCHEM_COMPOUND_CID>
1892

> <PUBCHEM_CONFORMER_RMSD>
0.6

> <PUBCHEM_CONFORMER_DIVERSEORDER>
1
2
3

> <PUBCHEM_MMFF94_PARTIAL_CHARGES>
18
1 -0.57
10 0.26
11 0.71
12 0.69
13 0.04
14 0.28
15 0.3
16 0.3
19 0.15
2 -0.57
28 0.4
3 -0.68
4 0.05
5 -0.42
6 -0.42
7 -0.57
8 -0.24
9 0.29

> <PUBCHEM_EFFECTIVE_ROTOR_COUNT>
2

> <PUBCHEM_PHARMACOPHORE_FEATURES>
7
1 1 acceptor
1 2 acceptor
1 3 acceptor
1 3 donor
3 4 7 13 cation
5 4 7 8 9 13 rings
6 5 6 8 9 11 12 rings

> <PUBCHEM_HEAVY_ATOM_COUNT>
16

> <PUBCHEM_ATOM_DEF_STEREO_COUNT>
0

> <PUBCHEM_ATOM_UDEF_STEREO_COUNT>
0

> <PUBCHEM_BOND_DEF_STEREO_COUNT>
0

> <PUBCHEM_BOND_UDEF_STEREO_COUNT>
0

> <PUBCHEM_ISOTOPIC_ATOM_COUNT>
0

> <PUBCHEM_COMPONENT_COUNT>
1

> <PUBCHEM_CACTVS_TAUTO_COUNT>
1

> <PUBCHEM_CONFORMER_ID>
0000076400000001

> <PUBCHEM_MMFF94_ENERGY>
23.287

> <PUBCHEM_FEATURE_SELFOVERLAP>
35.635

> <PUBCHEM_SHAPE_FINGERPRINT>
10219947 1 18337110180588243237
10493431 412 17907582780247520241
10967382 1 18338509863021709252
10980938 120 18337107994080526993
11132069 177 18342447183842893842
11471102 22 18335994116008737779
12251169 10 18342745104724017755
12382932 28 18339081613484569355
13140716 1 18194395821881619146
13380535 21 18122065574645475164
14251717 144 18339918316227208823
14790565 3 18338814410637567908
15219456 202 18335980857571314781
15309172 13 18339924913048893051
16945 1 18411125957448084358
17844478 74 18186520999186114893
17990270 104 18337382730390765250
193761 8 18194958535189891292
20645477 70 18335968840305613919
21501502 16 18266176132424670157
2334 1 17833823155431761286
23463225 33 18409165515077695661
23559900 14 17406544811460319206
2748010 2 18124019144867626358
458136 41 18265066892859700340
58807428 26 18122885780608375616
7364860 26 18341890805753801428
81228 2 17117752549830705312
8809292 202 18045784477135280771

> <PUBCHEM_SHAPE_MULTIPOLES>
291.74
5.33
2.66
0.78
2.24
0.07
0.08
0.62
1.5
-1.54
-0.1
0.51
0
0.17

> <PUBCHEM_SHAPE_SELFOVERLAP>
619.693

> <PUBCHEM_SHAPE_VOLUME>
164.1

> <PUBCHEM_COORDINATE_TYPE>
2
5
10

$$$$
