411697
  -OEChem-09252020553D

 43 47  0     1  0  0  0  0  0999 V2000
   -1.5602   -1.0397    1.2438 O   0  0  0  0  0  0  0  0  0  0  0  0
   -1.6020   -3.2467   -0.3362 O   0  0  0  0  0  0  0  0  0  0  0  0
   -3.7902    0.6987    0.5140 O   0  0  0  0  0  0  0  0  0  0  0  0
    3.2121    0.9120    0.4873 N   0  0  2  0  0  0  0  0  0  0  0  0
    0.7517   -0.6229    0.6655 C   0  0  1  0  0  0  0  0  0  0  0  0
    1.8679   -0.9528   -0.3318 C   0  0  2  0  0  0  0  0  0  0  0  0
    2.5371    0.3991   -0.7298 C   0  0  1  0  0  0  0  0  0  0  0  0
   -0.2867   -1.7092    0.9856 C   0  0  2  0  0  0  0  0  0  0  0  0
    1.3924   -0.0149    1.9318 C   0  0  0  0  0  0  0  0  0  0  0  0
   -0.1912    0.3568    0.0620 C   0  0  0  0  0  0  0  0  0  0  0  0
    1.3691   -1.7865   -1.5190 C   0  0  0  0  0  0  0  0  0  0  0  0
    1.5288    1.3996   -1.3973 C   0  0  0  0  0  0  0  0  0  0  0  0
    2.3082    1.1800    1.6108 C   0  0  0  0  0  0  0  0  0  0  0  0
    0.1293    1.3494   -0.8436 C   0  0  0  0  0  0  0  0  0  0  0  0
    0.6811   -3.0512   -1.0182 C   0  0  0  0  0  0  0  0  0  0  0  0
   -0.5125   -2.7004   -0.1588 C   0  0  0  0  0  0  0  0  0  0  0  0
   -1.4803    0.1040    0.4845 C   0  0  0  0  0  0  0  0  0  0  0  0
    4.0941    2.0453    0.2298 C   0  0  0  0  0  0  0  0  0  0  0  0
   -0.9113    2.1801   -1.2591 C   0  0  0  0  0  0  0  0  0  0  0  0
   -2.5193    0.9194    0.0984 C   0  0  0  0  0  0  0  0  0  0  0  0
   -2.2218    1.9754   -0.7751 C   0  0  0  0  0  0  0  0  0  0  0  0
   -4.7962    1.6046    0.0553 C   0  0  0  0  0  0  0  0  0  0  0  0
    2.6211   -1.5751    0.1764 H   0  0  0  0  0  0  0  0  0  0  0  0
    3.3220    0.1786   -1.4657 H   0  0  0  0  0  0  0  0  0  0  0  0
   -0.0091   -2.2910    1.8721 H   0  0  0  0  0  0  0  0  0  0  0  0
    1.9863   -0.7899    2.4350 H   0  0  0  0  0  0  0  0  0  0  0  0
    0.6302    0.3084    2.6527 H   0  0  0  0  0  0  0  0  0  0  0  0
    2.2183   -2.0620   -2.1552 H   0  0  0  0  0  0  0  0  0  0  0  0
    0.6752   -1.2172   -2.1475 H   0  0  0  0  0  0  0  0  0  0  0  0
    1.4627    1.1362   -2.4615 H   0  0  0  0  0  0  0  0  0  0  0  0
    1.9022    2.4277   -1.3591 H   0  0  0  0  0  0  0  0  0  0  0  0
    1.6992    2.0719    1.4179 H   0  0  0  0  0  0  0  0  0  0  0  0
    2.8968    1.3998    2.5103 H   0  0  0  0  0  0  0  0  0  0  0  0
    1.3634   -3.6712   -0.4271 H   0  0  0  0  0  0  0  0  0  0  0  0
    0.3378   -3.6448   -1.8723 H   0  0  0  0  0  0  0  0  0  0  0  0
    4.7154    2.2475    1.1096 H   0  0  0  0  0  0  0  0  0  0  0  0
    3.5490    2.9633   -0.0109 H   0  0  0  0  0  0  0  0  0  0  0  0
    4.7839    1.8249   -0.5922 H   0  0  0  0  0  0  0  0  0  0  0  0
   -0.7246    2.9786   -1.9723 H   0  0  0  0  0  0  0  0  0  0  0  0
   -2.9734    2.6658   -1.1459 H   0  0  0  0  0  0  0  0  0  0  0  0
   -5.7453    1.2863    0.4985 H   0  0  0  0  0  0  0  0  0  0  0  0
   -4.9140    1.5529   -1.0323 H   0  0  0  0  0  0  0  0  0  0  0  0
   -4.6038    2.6256    0.4018 H   0  0  0  0  0  0  0  0  0  0  0  0
  1  8  1  0  0  0  0
  1 17  1  0  0  0  0
  2 16  2  0  0  0  0
  3 20  1  0  0  0  0
  3 22  1  0  0  0  0
  4  7  1  0  0  0  0
  4 13  1  0  0  0  0
  4 18  1  0  0  0  0
  5  6  1  0  0  0  0
  5  8  1  0  0  0  0
  5  9  1  0  0  0  0
  5 10  1  0  0  0  0
  6  7  1  0  0  0  0
  6 11  1  0  0  0  0
  6 23  1  0  0  0  0
  7 12  1  0  0  0  0
  7 24  1  0  0  0  0
  8 16  1  0  0  0  0
  8 25  1  0  0  0  0
  9 13  1  0  0  0  0
  9 26  1  0  0  0  0
  9 27  1  0  0  0  0
 10 14  2  0  0  0  0
 10 17  1  0  0  0  0
 11 15  1  0  0  0  0
 11 28  1  0  0  0  0
 11 29  1  0  0  0  0
 12 14  1  0  0  0  0
 12 30  1  0  0  0  0
 12 31  1  0  0  0  0
 13 32  1  0  0  0  0
 13 33  1  0  0  0  0
 14 19  1  0  0  0  0
 15 16  1  0  0  0  0
 15 34  1  0  0  0  0
 15 35  1  0  0  0  0
 17 20  2  0  0  0  0
 18 36  1  0  0  0  0
 18 37  1  0  0  0  0
 18 38  1  0  0  0  0
 19 21  2  0  0  0  0
 19 39  1  0  0  0  0
 20 21  1  0  0  0  0
 21 40  1  0  0  0  0
 22 41  1  0  0  0  0
 22 42  1  0  0  0  0
 22 43  1  0  0  0  0
M  END
> <PUBCHEM_COMPOUND_CID>
411697

> <PUBCHEM_CONFORMER_RMSD>
0.6

> <PUBCHEM_CONFORMER_DIVERSEORDER>
1
3
2
7
5
6
8
4

> <PUBCHEM_MMFF94_PARTIAL_CHARGES>
21
1 -0.36
10 -0.14
12 0.14
13 0.27
14 -0.14
15 0.06
16 0.45
17 0.08
18 0.27
19 -0.15
2 -0.57
20 0.08
21 -0.15
22 0.28
3 -0.36
39 0.15
4 -0.81
40 0.15
5 0.14
7 0.27
8 0.34

> <PUBCHEM_EFFECTIVE_ROTOR_COUNT>
2.4

> <PUBCHEM_PHARMACOPHORE_FEATURES>
9
1 1 acceptor
1 2 acceptor
1 3 acceptor
1 4 cation
5 1 5 8 10 17 rings
6 10 14 17 19 20 21 rings
6 4 5 6 7 9 13 rings
6 5 6 7 10 12 14 rings
6 5 6 8 11 15 16 rings

> <PUBCHEM_HEAVY_ATOM_COUNT>
22

> <PUBCHEM_ATOM_DEF_STEREO_COUNT>
0

> <PUBCHEM_ATOM_UDEF_STEREO_COUNT>
4

> <PUBCHEM_BOND_DEF_STEREO_COUNT>
0

> <PUBCHEM_BOND_UDEF_STEREO_COUNT>
0

> <PUBCHEM_ISOTOPIC_ATOM_COUNT>
0

> <PUBCHEM_COMPONENT_COUNT>
1

> <PUBCHEM_CACTVS_TAUTO_COUNT>
3

> <PUBCHEM_CONFORMER_ID>
0006483100000001

> <PUBCHEM_MMFF94_ENERGY>
80.3722

> <PUBCHEM_FEATURE_SELFOVERLAP>
47.722

> <PUBCHEM_SHAPE_FINGERPRINT>
10165383 225 18343029903779173032
104564 63 18052813934007539543
10863032 1 17846494863522028534
10871710 139 17469333985746559500
10948715 1 18413387652782120852
11578080 2 17914617400493174416
12035758 1 18267578010314944794
12423570 1 8090685162967723846
12716301 132 18057589070378973482
12778500 126 17412770323547514033
13132413 78 15966795399734531552
13140716 1 18335988566958827963
13172582 1 18113620096751530089
14142880 1 18050266361534863144
144361 1 18190204397398565634
14817 1 12205894711623411626
15852999 172 18343584048901606394
16945 1 17755317995085774498
17357779 13 17555157413470999687
20905425 154 17464812368340478450
21524375 3 18335136462421039600
22112679 90 17545612604680295698
22149856 69 18265919990621559953
22182313 1 18192739854280761355
23388829 49 17255679119419355308
23419403 2 17617149841955847754
238 59 17977923723328198333
2748010 2 18190767304518631211
3060560 45 18264211309857702319
34934 24 17895192263539248716
427121 178 18342172254491431025
4340502 62 18131631179904598577
495365 180 18052514600989569029
7364860 26 18051692148789785277
81228 2 17905021987632820354
84936 31 17700113418677831503

> <PUBCHEM_SHAPE_MULTIPOLES>
430.16
5.32
3.23
1.48
3.62
2.49
0.2
-4.42
0.71
0.01
-1.02
-0.67
-0.05
0.72

> <PUBCHEM_SHAPE_SELFOVERLAP>
969.173

> <PUBCHEM_SHAPE_VOLUME>
225.1

> <PUBCHEM_COORDINATE_TYPE>
2
5
10

$$$$
