107641
  -OEChem-09252020553D

 39 41  0     1  0  0  0  0  0999 V2000
    1.8305   -1.9502   -0.8433 O   0  0  0  0  0  0  0  0  0  0  0  0
   -6.2070   -0.5939    0.9802 O   0  0  0  0  0  0  0  0  0  0  0  0
   -4.2133   -1.4718    1.6030 O   0  0  0  0  0  0  0  0  0  0  0  0
    1.4544    0.2067    0.0702 N   0  0  0  0  0  0  0  0  0  0  0  0
    2.3141    1.2906    0.5519 C   0  0  0  0  0  0  0  0  0  0  0  0
    3.6846    0.7455    0.3475 C   0  0  0  0  0  0  0  0  0  0  0  0
   -4.2183    0.4073    0.0372 C   0  0  1  0  0  0  0  0  0  0  0  0
    0.0655    0.2556    0.0622 C   0  0  0  0  0  0  0  0  0  0  0  0
    3.6200   -0.5306   -0.2003 C   0  0  0  0  0  0  0  0  0  0  0  0
   -2.7279    0.3545    0.0462 C   0  0  0  0  0  0  0  0  0  0  0  0
    2.2089   -0.8879   -0.3824 C   0  0  0  0  0  0  0  0  0  0  0  0
   -4.8780    0.2648   -1.3633 C   0  0  0  0  0  0  0  0  0  0  0  0
   -0.6004    1.3903    0.5338 C   0  0  0  0  0  0  0  0  0  0  0  0
   -0.6734   -0.8293   -0.4177 C   0  0  0  0  0  0  0  0  0  0  0  0
   -1.9945    1.4394    0.5260 C   0  0  0  0  0  0  0  0  0  0  0  0
   -2.0674   -0.7801   -0.4256 C   0  0  0  0  0  0  0  0  0  0  0  0
    4.9076    1.3287    0.6220 C   0  0  0  0  0  0  0  0  0  0  0  0
    4.7487   -1.2723   -0.4948 C   0  0  0  0  0  0  0  0  0  0  0  0
   -4.8488   -0.6501    0.9554 C   0  0  0  0  0  0  0  0  0  0  0  0
   -4.4586    1.3723   -2.3217 C   0  0  0  0  0  0  0  0  0  0  0  0
    6.0662    0.6004    0.3338 C   0  0  0  0  0  0  0  0  0  0  0  0
    5.9870   -0.6899   -0.2202 C   0  0  0  0  0  0  0  0  0  0  0  0
    2.1179    1.4733    1.6130 H   0  0  0  0  0  0  0  0  0  0  0  0
    2.1529    2.1868   -0.0554 H   0  0  0  0  0  0  0  0  0  0  0  0
   -4.5383    1.3710    0.4590 H   0  0  0  0  0  0  0  0  0  0  0  0
   -4.6373   -0.7089   -1.8072 H   0  0  0  0  0  0  0  0  0  0  0  0
   -5.9705    0.2993   -1.2749 H   0  0  0  0  0  0  0  0  0  0  0  0
   -0.0656    2.2554    0.9150 H   0  0  0  0  0  0  0  0  0  0  0  0
   -0.2590   -1.7482   -0.8026 H   0  0  0  0  0  0  0  0  0  0  0  0
   -2.4934    2.3311    0.8964 H   0  0  0  0  0  0  0  0  0  0  0  0
   -2.6223   -1.6350   -0.8029 H   0  0  0  0  0  0  0  0  0  0  0  0
    4.9734    2.3235    1.0490 H   0  0  0  0  0  0  0  0  0  0  0  0
    4.6847   -2.2664   -0.9218 H   0  0  0  0  0  0  0  0  0  0  0  0
   -4.6869    2.3584   -1.9051 H   0  0  0  0  0  0  0  0  0  0  0  0
   -3.3880    1.3290   -2.5436 H   0  0  0  0  0  0  0  0  0  0  0  0
   -4.9979    1.2724   -3.2692 H   0  0  0  0  0  0  0  0  0  0  0  0
    7.0406    1.0355    0.5399 H   0  0  0  0  0  0  0  0  0  0  0  0
    6.9006   -1.2373   -0.4360 H   0  0  0  0  0  0  0  0  0  0  0  0
   -6.5899   -1.2787    1.5689 H   0  0  0  0  0  0  0  0  0  0  0  0
  1 11  2  0  0  0  0
  2 19  1  0  0  0  0
  2 39  1  0  0  0  0
  3 19  2  0  0  0  0
  4  5  1  0  0  0  0
  4  8  1  0  0  0  0
  4 11  1  0  0  0  0
  5  6  1  0  0  0  0
  5 23  1  0  0  0  0
  5 24  1  0  0  0  0
  6  9  1  0  0  0  0
  6 17  2  0  0  0  0
  7 10  1  0  0  0  0
  7 12  1  0  0  0  0
  7 19  1  0  0  0  0
  7 25  1  0  0  0  0
  8 13  2  0  0  0  0
  8 14  1  0  0  0  0
  9 11  1  0  0  0  0
  9 18  2  0  0  0  0
 10 15  2  0  0  0  0
 10 16  1  0  0  0  0
 12 20  1  0  0  0  0
 12 26  1  0  0  0  0
 12 27  1  0  0  0  0
 13 15  1  0  0  0  0
 13 28  1  0  0  0  0
 14 16  2  0  0  0  0
 14 29  1  0  0  0  0
 15 30  1  0  0  0  0
 16 31  1  0  0  0  0
 17 21  1  0  0  0  0
 17 32  1  0  0  0  0
 18 22  1  0  0  0  0
 18 33  1  0  0  0  0
 20 34  1  0  0  0  0
 20 35  1  0  0  0  0
 20 36  1  0  0  0  0
 21 22  2  0  0  0  0
 21 37  1  0  0  0  0
 22 38  1  0  0  0  0
M  END
> <PUBCHEM_COMPOUND_CID>
107641

> <PUBCHEM_CONFORMER_RMSD>
0.8

> <PUBCHEM_CONFORMER_DIVERSEORDER>
1
8
5
10
6
3
7
4
9
2

> <PUBCHEM_MMFF94_PARTIAL_CHARGES>
29
1 -0.57
10 -0.14
11 0.54
13 -0.15
14 -0.15
15 -0.15
16 -0.15
17 -0.15
18 -0.15
19 0.66
2 -0.65
21 -0.15
22 -0.15
28 0.15
29 0.15
3 -0.57
30 0.15
31 0.15
32 0.15
33 0.15
37 0.15
38 0.15
39 0.5
4 -0.48
5 0.44
6 -0.14
7 0.2
8 0.12
9 0.09

> <PUBCHEM_EFFECTIVE_ROTOR_COUNT>
4.4

> <PUBCHEM_PHARMACOPHORE_FEATURES>
8
1 1 acceptor
1 2 acceptor
1 20 hydrophobe
1 3 acceptor
3 2 3 19 anion
5 4 5 6 9 11 rings
6 6 9 17 18 21 22 rings
6 8 10 13 14 15 16 rings

> <PUBCHEM_HEAVY_ATOM_COUNT>
22

> <PUBCHEM_ATOM_DEF_STEREO_COUNT>
0

> <PUBCHEM_ATOM_UDEF_STEREO_COUNT>
1

> <PUBCHEM_BOND_DEF_STEREO_COUNT>
0

> <PUBCHEM_BOND_UDEF_STEREO_COUNT>
0

> <PUBCHEM_ISOTOPIC_ATOM_COUNT>
0

> <PUBCHEM_COMPONENT_COUNT>
1

> <PUBCHEM_CACTVS_TAUTO_COUNT>
1

> <PUBCHEM_CONFORMER_ID>
0001A47900000001

> <PUBCHEM_MMFF94_ENERGY>
66.9526

> <PUBCHEM_FEATURE_SELFOVERLAP>
40.742

> <PUBCHEM_SHAPE_FINGERPRINT>
10 15 18336820996651911880
10912923 1 16272205301573112424
11287383 113 18113902688646402760
12107183 9 17196590896528303882
12166972 35 17603591841615222708
12236239 1 16630807715999946853
12403259 415 18334571356410223460
12516196 113 17632574967906853673
12596602 18 17385438843597342072
12616971 3 17418094338420023461
12916748 109 18342744005391822432
13533116 47 16988566767430043366
13583140 156 18113609093319390543
13760787 5 17917709114882650045
13862211 1 18131345293986068342
1420 363 18410862061688126706
14251764 18 17346882273667117467
14341114 176 18342182172029606258
14848160 23 18259984872795951138
15196674 1 18201440229730168176
15788980 27 18408601474255283375
17834072 33 16415191295591938892
17844677 252 17530969098210279557
19489759 90 17095240311371740141
200 152 17632290164177507437
20645477 70 18201155468839862222
21033648 29 18337655478078885225
21033650 10 16154842197747544292
21236236 1 18130791105908927641
21267235 1 18201447948092191726
21424621 283 17679854917854548181
21623969 137 18272098209415939867
220451 1 15985106310112211420
23081809 10 16702299066256046132
23402539 116 18410848880238355527
23522609 53 16844748545550227776
23536379 177 16588020191140752312
23557571 272 17748830687492662533
23559900 14 18409443704562947016
23569914 152 16975601085031971045
26918003 58 18408045125861781419
314194 84 17917990560010763526
335352 9 18201999942095601342
34797466 226 17386020476478795622
3545911 37 18342459253349764036
4340502 62 17822288003394624962
465052 167 18408887309499804482
5104073 3 18200032829129267128
5283173 99 17968088669122333077
542803 24 14923944535511311564
59755656 215 18343305834554270486

> <PUBCHEM_SHAPE_MULTIPOLES>
430.16
15.04
1.56
1.24
2.23
0.03
0.41
0.74
-0.33
0.56
-0.01
-2.39
-0.09
1.78

> <PUBCHEM_SHAPE_SELFOVERLAP>
939.648

> <PUBCHEM_SHAPE_VOLUME>
233

> <PUBCHEM_COORDINATE_TYPE>
2
5
10

$$$$
