3749
  -OEChem-09252020553D

 60 64  0     0  0  0  0  0  0999 V2000
   -2.8657   -2.3022   -1.6205 O   0  0  0  0  0  0  0  0  0  0  0  0
   -3.7323   -0.0407    0.9757 N   0  0  0  0  0  0  0  0  0  0  0  0
   -2.5174   -0.1004   -0.9194 N   0  0  0  0  0  0  0  0  0  0  0  0
    2.9573   -0.3878    2.4133 N   0  0  0  0  0  0  0  0  0  0  0  0
    3.4280    1.7149    1.7173 N   0  0  0  0  0  0  0  0  0  0  0  0
    2.3752    0.5728    3.1448 N   0  0  0  0  0  0  0  0  0  0  0  0
    2.6266    1.8344    2.7687 N   0  0  0  0  0  0  0  0  0  0  0  0
   -3.8562   -1.4076    0.4183 C   0  0  0  0  0  0  0  0  0  0  0  0
   -3.3502   -2.4446    1.4262 C   0  0  0  0  0  0  0  0  0  0  0  0
   -5.3276   -1.7338    0.1427 C   0  0  0  0  0  0  0  0  0  0  0  0
   -4.6049   -3.1571    1.9181 C   0  0  0  0  0  0  0  0  0  0  0  0
   -5.5249   -3.1341    0.7100 C   0  0  0  0  0  0  0  0  0  0  0  0
   -3.0232   -1.3695   -0.8479 C   0  0  0  0  0  0  0  0  0  0  0  0
   -2.9638    0.5930    0.1453 C   0  0  0  0  0  0  0  0  0  0  0  0
   -2.5801    2.0239    0.3462 C   0  0  0  0  0  0  0  0  0  0  0  0
   -1.6531    0.3847   -1.9809 C   0  0  0  0  0  0  0  0  0  0  0  0
   -3.6198    2.9575   -0.2635 C   0  0  0  0  0  0  0  0  0  0  0  0
   -0.2011    0.1677   -1.6665 C   0  0  0  0  0  0  0  0  0  0  0  0
   -3.2945    4.4341   -0.0257 C   0  0  0  0  0  0  0  0  0  0  0  0
    0.2160   -1.0551   -1.1540 C   0  0  0  0  0  0  0  0  0  0  0  0
    0.7113    1.1916   -1.8910 C   0  0  0  0  0  0  0  0  0  0  0  0
   -4.3813    5.3393   -0.5850 C   0  0  0  0  0  0  0  0  0  0  0  0
    1.5650   -1.2567   -0.8617 C   0  0  0  0  0  0  0  0  0  0  0  0
    2.0604    0.9901   -1.5989 C   0  0  0  0  0  0  0  0  0  0  0  0
    2.4871   -0.2342   -1.0842 C   0  0  0  0  0  0  0  0  0  0  0  0
    3.8865   -0.4436   -0.7819 C   0  0  0  0  0  0  0  0  0  0  0  0
    4.4203   -0.1497    0.4754 C   0  0  0  0  0  0  0  0  0  0  0  0
    4.7155   -0.9546   -1.7834 C   0  0  0  0  0  0  0  0  0  0  0  0
    5.7748   -0.3654    0.7291 C   0  0  0  0  0  0  0  0  0  0  0  0
    6.0700   -1.1702   -1.5296 C   0  0  0  0  0  0  0  0  0  0  0  0
    3.6022    0.3788    1.5361 C   0  0  0  0  0  0  0  0  0  0  0  0
    6.5997   -0.8757   -0.2734 C   0  0  0  0  0  0  0  0  0  0  0  0
   -2.7990   -2.0012    2.2625 H   0  0  0  0  0  0  0  0  0  0  0  0
   -2.6852   -3.1727    0.9458 H   0  0  0  0  0  0  0  0  0  0  0  0
   -5.9897   -1.0333    0.6668 H   0  0  0  0  0  0  0  0  0  0  0  0
   -5.5893   -1.7007   -0.9202 H   0  0  0  0  0  0  0  0  0  0  0  0
   -4.3956   -4.1732    2.2642 H   0  0  0  0  0  0  0  0  0  0  0  0
   -5.0547   -2.5983    2.7474 H   0  0  0  0  0  0  0  0  0  0  0  0
   -6.5675   -3.3306    0.9757 H   0  0  0  0  0  0  0  0  0  0  0  0
   -5.2092   -3.8867   -0.0221 H   0  0  0  0  0  0  0  0  0  0  0  0
   -1.5892    2.2329   -0.0647 H   0  0  0  0  0  0  0  0  0  0  0  0
   -2.5181    2.2054    1.4264 H   0  0  0  0  0  0  0  0  0  0  0  0
   -1.8639    1.4424   -2.1655 H   0  0  0  0  0  0  0  0  0  0  0  0
   -1.8895   -0.1631   -2.9013 H   0  0  0  0  0  0  0  0  0  0  0  0
   -4.6054    2.7296    0.1626 H   0  0  0  0  0  0  0  0  0  0  0  0
   -3.7033    2.7704   -1.3411 H   0  0  0  0  0  0  0  0  0  0  0  0
   -3.1884    4.6230    1.0488 H   0  0  0  0  0  0  0  0  0  0  0  0
   -2.3362    4.6826   -0.4962 H   0  0  0  0  0  0  0  0  0  0  0  0
   -0.4617   -1.8814   -0.9811 H   0  0  0  0  0  0  0  0  0  0  0  0
    0.3917    2.1496   -2.2916 H   0  0  0  0  0  0  0  0  0  0  0  0
   -4.1284    6.3892   -0.4072 H   0  0  0  0  0  0  0  0  0  0  0  0
   -4.4946    5.1950   -1.6642 H   0  0  0  0  0  0  0  0  0  0  0  0
   -5.3453    5.1365   -0.1076 H   0  0  0  0  0  0  0  0  0  0  0  0
    1.8818   -2.2181   -0.4641 H   0  0  0  0  0  0  0  0  0  0  0  0
    2.7661    1.7980   -1.7777 H   0  0  0  0  0  0  0  0  0  0  0  0
    4.3218   -1.1908   -2.7695 H   0  0  0  0  0  0  0  0  0  0  0  0
    6.2054   -0.1411    1.7023 H   0  0  0  0  0  0  0  0  0  0  0  0
    6.7123   -1.5675   -2.3100 H   0  0  0  0  0  0  0  0  0  0  0  0
    7.6544   -1.0436   -0.0759 H   0  0  0  0  0  0  0  0  0  0  0  0
    1.7783    0.3576    3.9363 H   0  0  0  0  0  0  0  0  0  0  0  0
  1 13  2  0  0  0  0
  2  8  1  0  0  0  0
  2 14  2  0  0  0  0
  3 13  1  0  0  0  0
  3 14  1  0  0  0  0
  3 16  1  0  0  0  0
  4  6  1  0  0  0  0
  4 31  2  0  0  0  0
  5  7  2  0  0  0  0
  5 31  1  0  0  0  0
  6  7  1  0  0  0  0
  6 60  1  0  0  0  0
  8  9  1  0  0  0  0
  8 10  1  0  0  0  0
  8 13  1  0  0  0  0
  9 11  1  0  0  0  0
  9 33  1  0  0  0  0
  9 34  1  0  0  0  0
 10 12  1  0  0  0  0
 10 35  1  0  0  0  0
 10 36  1  0  0  0  0
 11 12  1  0  0  0  0
 11 37  1  0  0  0  0
 11 38  1  0  0  0  0
 12 39  1  0  0  0  0
 12 40  1  0  0  0  0
 14 15  1  0  0  0  0
 15 17  1  0  0  0  0
 15 41  1  0  0  0  0
 15 42  1  0  0  0  0
 16 18  1  0  0  0  0
 16 43  1  0  0  0  0
 16 44  1  0  0  0  0
 17 19  1  0  0  0  0
 17 45  1  0  0  0  0
 17 46  1  0  0  0  0
 18 20  2  0  0  0  0
 18 21  1  0  0  0  0
 19 22  1  0  0  0  0
 19 47  1  0  0  0  0
 19 48  1  0  0  0  0
 20 23  1  0  0  0  0
 20 49  1  0  0  0  0
 21 24  2  0  0  0  0
 21 50  1  0  0  0  0
 22 51  1  0  0  0  0
 22 52  1  0  0  0  0
 22 53  1  0  0  0  0
 23 25  2  0  0  0  0
 23 54  1  0  0  0  0
 24 25  1  0  0  0  0
 24 55  1  0  0  0  0
 25 26  1  0  0  0  0
 26 27  1  0  0  0  0
 26 28  2  0  0  0  0
 27 29  2  0  0  0  0
 27 31  1  0  0  0  0
 28 30  1  0  0  0  0
 28 56  1  0  0  0  0
 29 32  1  0  0  0  0
 29 57  1  0  0  0  0
 30 32  2  0  0  0  0
 30 58  1  0  0  0  0
 32 59  1  0  0  0  0
M  END
> <PUBCHEM_COMPOUND_CID>
3749

> <PUBCHEM_CONFORMER_RMSD>
1

> <PUBCHEM_CONFORMER_DIVERSEORDER>
1
18
4
15
17
11
10
37
26
27
20
38
34
28
39
25
7
12
35
29
31
21
19
3
32
36
33
24
2
6
14
5
8
13
9
23
30
22
16

> <PUBCHEM_MMFF94_PARTIAL_CHARGES>
32
1 -0.57
13 0.57
14 0.45
15 0.06
16 0.44
18 -0.14
2 -0.7
20 -0.15
21 -0.15
23 -0.15
24 -0.15
27 0.05
28 -0.15
29 -0.15
3 -0.42
30 -0.15
31 0.46
32 -0.15
4 -0.71
49 0.15
5 -0.23
50 0.15
54 0.15
55 0.15
56 0.15
57 0.15
58 0.15
59 0.15
6 0.57
60 0.27
7 -0.42
8 0.31

> <PUBCHEM_EFFECTIVE_ROTOR_COUNT>
8

> <PUBCHEM_PHARMACOPHORE_FEATURES>
8
1 1 acceptor
1 22 hydrophobe
3 4 5 31 cation
5 2 3 8 13 14 rings
5 4 5 6 7 31 rings
5 8 9 10 11 12 rings
6 18 20 21 23 24 25 rings
6 26 27 28 29 30 32 rings

> <PUBCHEM_HEAVY_ATOM_COUNT>
32

> <PUBCHEM_ATOM_DEF_STEREO_COUNT>
0

> <PUBCHEM_ATOM_UDEF_STEREO_COUNT>
0

> <PUBCHEM_BOND_DEF_STEREO_COUNT>
0

> <PUBCHEM_BOND_UDEF_STEREO_COUNT>
0

> <PUBCHEM_ISOTOPIC_ATOM_COUNT>
0

> <PUBCHEM_COMPONENT_COUNT>
1

> <PUBCHEM_CACTVS_TAUTO_COUNT>
2

> <PUBCHEM_CONFORMER_ID>
00000EA500000001

> <PUBCHEM_MMFF94_ENERGY>
76.7607

> <PUBCHEM_FEATURE_SELFOVERLAP>
40.617

> <PUBCHEM_SHAPE_FINGERPRINT>
10074138 170 18336560335255535801
11007060 377 16226626190211802558
11069576 57 15141500520744255850
11135926 11 13623529031212698208
11377469 6 17458635574557401127
11545043 162 18342176652780385574
12128747 34 18127413354199886255
12422481 6 17489593406526229481
12596602 18 17895474842496166516
12788726 201 18115039592744656985
131258 38 17033324882961413459
13583140 156 17775000159170947046
13782708 43 18272940418644419382
14068700 675 18114467876483708607
14178342 30 18334582295871105999
14705955 166 18341892966006736185
15001296 14 16517936392126337658
15081414 286 16702019795299120184
15131766 46 16556766723608982977
15183329 4 16371273520504689727
15484559 13 13416306041087678236
15537594 2 16515405178898832739
15721738 202 18338528555194466380
16067689 68 17826208746048262306
17138139 8 16226611943489218674
20028762 73 18262807400739509022
20554085 129 17977375041832049557
21033648 144 16128072538923786344
21033648 29 17988911246188194000
21315759 148 18411420614170251042
21315764 371 17168410684154583208
21792934 111 18130796698525870699
21792961 116 17703236101538394542
23522609 53 17388008333694455620
23559900 14 18043255836909827815
3004659 81 17459189745608523807
3459 110 17274257395431852719
376196 1 17624971639401983133
392239 28 17489315242964736907
4169191 19 15481801607830734338
463206 1 15864913295512185731
508706 21 18271232829556791461
6009941 240 18198345057574825476
6086070 43 17130122249059106492
6371380 46 17617386082136485015
9896288 288 18337119968898397319

> <PUBCHEM_SHAPE_MULTIPOLES>
622.79
14.48
4.3
2.44
9.91
5.48
1.38
-5.37
1.8
-12.19
0.76
2.43
0.03
2.31

> <PUBCHEM_SHAPE_SELFOVERLAP>
1363.688

> <PUBCHEM_SHAPE_VOLUME>
343

> <PUBCHEM_COORDINATE_TYPE>
2
5
10

$$$$
