3750
  -OEChem-09252020553D

 81 87  0     1  0  0  0  0  0999 V2000
    3.4173   -0.3205   -0.7655 O   0  0  0  0  0  0  0  0  0  0  0  0
   -9.3400    0.4150   -0.2152 O   0  0  0  0  0  0  0  0  0  0  0  0
    3.5027   -0.3332    1.5481 O   0  0  0  0  0  0  0  0  0  0  0  0
   -6.9915    3.0397   -0.6654 O   0  0  0  0  0  0  0  0  0  0  0  0
   -6.6250   -2.8251    0.0018 O   0  0  0  0  0  0  0  0  0  0  0  0
   -9.5736    2.5544   -0.8516 O   0  0  0  0  0  0  0  0  0  0  0  0
    9.3821    0.7571    0.0902 N   0  0  0  0  0  0  0  0  0  0  0  0
    5.4331   -0.7286    0.3147 N   0  0  0  0  0  0  0  0  0  0  0  0
   -4.8171   -1.3917   -0.1508 N   0  0  0  0  0  0  0  0  0  0  0  0
   -2.0120    0.8532   -0.3404 N   0  0  0  0  0  0  0  0  0  0  0  0
    8.2667   -0.1879    0.1364 C   0  0  0  0  0  0  0  0  0  0  0  0
    7.3296    0.0456   -1.0561 C   0  0  0  0  0  0  0  0  0  0  0  0
    7.5018   -0.0345    1.4577 C   0  0  0  0  0  0  0  0  0  0  0  0
   10.2858    0.5415    1.2289 C   0  0  0  0  0  0  0  0  0  0  0  0
   10.1001    0.6428   -1.1869 C   0  0  0  0  0  0  0  0  0  0  0  0
    6.1075   -0.8687   -0.9801 C   0  0  0  0  0  0  0  0  0  0  0  0
    6.2773   -0.9472    1.4890 C   0  0  0  0  0  0  0  0  0  0  0  0
   11.4320    1.5540    1.2228 C   0  0  0  0  0  0  0  0  0  0  0  0
   11.2402    1.6588   -1.2719 C   0  0  0  0  0  0  0  0  0  0  0  0
   12.1981    1.5169   -0.0946 C   0  0  0  0  0  0  0  0  0  0  0  0
    4.0708   -0.4512    0.4630 C   0  0  0  0  0  0  0  0  0  0  0  0
   -4.3126   -0.1019   -0.1758 C   0  0  0  0  0  0  0  0  0  0  0  0
   -2.5160   -1.5236   -0.3317 C   0  0  0  0  0  0  0  0  0  0  0  0
   -3.7305   -2.3881   -0.2480 C   0  0  0  0  0  0  0  0  0  0  0  0
   -6.5487    0.7606    0.0121 C   0  0  0  0  0  0  0  0  0  0  0  0
   -7.4556    1.9533    0.1395 C   0  0  1  0  0  0  0  0  0  0  0  0
   -2.8631   -0.1808   -0.2886 C   0  0  0  0  0  0  0  0  0  0  0  0
   -7.0630   -0.4817    0.0520 C   0  0  0  0  0  0  0  0  0  0  0  0
   -1.1856   -1.8532   -0.4374 C   0  0  0  0  0  0  0  0  0  0  0  0
   -5.1121    0.9646   -0.0956 C   0  0  0  0  0  0  0  0  0  0  0  0
   -6.1633   -1.6870   -0.0353 C   0  0  0  0  0  0  0  0  0  0  0  0
   -0.2459   -0.8105   -0.4961 C   0  0  0  0  0  0  0  0  0  0  0  0
   -7.5386    2.4515    1.5829 C   0  0  0  0  0  0  0  0  0  0  0  0
   -8.5290   -0.7058    0.2002 C   0  0  0  0  0  0  0  0  0  0  0  0
   -0.7052    0.5362   -0.4440 C   0  0  0  0  0  0  0  0  0  0  0  0
   -8.8663    1.6739   -0.3654 C   0  0  0  0  0  0  0  0  0  0  0  0
   -0.7973   -3.2944   -0.4847 C   0  0  0  0  0  0  0  0  0  0  0  0
    2.0506   -0.0424   -0.6597 C   0  0  0  0  0  0  0  0  0  0  0  0
    1.1271   -1.0824   -0.6037 C   0  0  0  0  0  0  0  0  0  0  0  0
    0.2437    1.5515   -0.5025 C   0  0  0  0  0  0  0  0  0  0  0  0
    1.6088    1.2740   -0.6091 C   0  0  0  0  0  0  0  0  0  0  0  0
   -8.0438    1.3659    2.5122 C   0  0  0  0  0  0  0  0  0  0  0  0
   -0.5396   -3.8702    0.9045 C   0  0  0  0  0  0  0  0  0  0  0  0
    8.6463   -1.2186    0.0767 H   0  0  0  0  0  0  0  0  0  0  0  0
    7.8053   -0.1804   -2.0149 H   0  0  0  0  0  0  0  0  0  0  0  0
    6.9977    1.0919   -1.0804 H   0  0  0  0  0  0  0  0  0  0  0  0
    7.1806    1.0069    1.5921 H   0  0  0  0  0  0  0  0  0  0  0  0
    8.1029   -0.3158    2.3271 H   0  0  0  0  0  0  0  0  0  0  0  0
    9.7865    0.7010    2.1880 H   0  0  0  0  0  0  0  0  0  0  0  0
   10.6913   -0.4786    1.2256 H   0  0  0  0  0  0  0  0  0  0  0  0
   10.4941   -0.3715   -1.3316 H   0  0  0  0  0  0  0  0  0  0  0  0
    9.4625    0.8820   -2.0418 H   0  0  0  0  0  0  0  0  0  0  0  0
    5.4317   -0.6455   -1.8100 H   0  0  0  0  0  0  0  0  0  0  0  0
    6.4073   -1.9190   -1.0764 H   0  0  0  0  0  0  0  0  0  0  0  0
    6.5821   -2.0005    1.4801 H   0  0  0  0  0  0  0  0  0  0  0  0
    5.7105   -0.7778    2.4101 H   0  0  0  0  0  0  0  0  0  0  0  0
   11.0329    2.5636    1.3842 H   0  0  0  0  0  0  0  0  0  0  0  0
   12.1166    1.3448    2.0528 H   0  0  0  0  0  0  0  0  0  0  0  0
   10.8276    2.6758   -1.2856 H   0  0  0  0  0  0  0  0  0  0  0  0
   11.7886    1.5239   -2.2113 H   0  0  0  0  0  0  0  0  0  0  0  0
   12.9453    2.3177   -0.1184 H   0  0  0  0  0  0  0  0  0  0  0  0
   12.7401    0.5667   -0.1762 H   0  0  0  0  0  0  0  0  0  0  0  0
   -3.8902   -2.9896   -1.1478 H   0  0  0  0  0  0  0  0  0  0  0  0
   -3.7490   -3.0154    0.6480 H   0  0  0  0  0  0  0  0  0  0  0  0
   -4.7128    1.9725   -0.1018 H   0  0  0  0  0  0  0  0  0  0  0  0
   -6.5572    2.8060    1.9236 H   0  0  0  0  0  0  0  0  0  0  0  0
   -8.2052    3.3213    1.6517 H   0  0  0  0  0  0  0  0  0  0  0  0
   -8.8389   -1.5345   -0.4462 H   0  0  0  0  0  0  0  0  0  0  0  0
   -8.7996   -0.9843    1.2230 H   0  0  0  0  0  0  0  0  0  0  0  0
    0.0624   -3.4702   -1.1392 H   0  0  0  0  0  0  0  0  0  0  0  0
   -1.5982   -3.8788   -0.9562 H   0  0  0  0  0  0  0  0  0  0  0  0
    1.5204   -2.0940   -0.6324 H   0  0  0  0  0  0  0  0  0  0  0  0
   -0.0739    2.5921   -0.4649 H   0  0  0  0  0  0  0  0  0  0  0  0
    2.3205    2.0940   -0.6524 H   0  0  0  0  0  0  0  0  0  0  0  0
   -9.0649    1.0530    2.2828 H   0  0  0  0  0  0  0  0  0  0  0  0
   -7.3805    0.5000    2.5717 H   0  0  0  0  0  0  0  0  0  0  0  0
   -8.0837    1.7750    3.5295 H   0  0  0  0  0  0  0  0  0  0  0  0
   -7.5277    3.8253   -0.4625 H   0  0  0  0  0  0  0  0  0  0  0  0
   -1.4242   -3.7831    1.5442 H   0  0  0  0  0  0  0  0  0  0  0  0
   -0.2797   -4.9309    0.8301 H   0  0  0  0  0  0  0  0  0  0  0  0
    0.2870   -3.3534    1.4032 H   0  0  0  0  0  0  0  0  0  0  0  0
  1 21  1  0  0  0  0
  1 38  1  0  0  0  0
  2 34  1  0  0  0  0
  2 36  1  0  0  0  0
  3 21  2  0  0  0  0
  4 26  1  0  0  0  0
  4 78  1  0  0  0  0
  5 31  2  0  0  0  0
  6 36  2  0  0  0  0
  7 11  1  0  0  0  0
  7 14  1  0  0  0  0
  7 15  1  0  0  0  0
  8 16  1  0  0  0  0
  8 17  1  0  0  0  0
  8 21  1  0  0  0  0
  9 22  1  0  0  0  0
  9 24  1  0  0  0  0
  9 31  1  0  0  0  0
 10 27  2  0  0  0  0
 10 35  1  0  0  0  0
 11 12  1  0  0  0  0
 11 13  1  0  0  0  0
 11 44  1  0  0  0  0
 12 16  1  0  0  0  0
 12 45  1  0  0  0  0
 12 46  1  0  0  0  0
 13 17  1  0  0  0  0
 13 47  1  0  0  0  0
 13 48  1  0  0  0  0
 14 18  1  0  0  0  0
 14 49  1  0  0  0  0
 14 50  1  0  0  0  0
 15 19  1  0  0  0  0
 15 51  1  0  0  0  0
 15 52  1  0  0  0  0
 16 53  1  0  0  0  0
 16 54  1  0  0  0  0
 17 55  1  0  0  0  0
 17 56  1  0  0  0  0
 18 20  1  0  0  0  0
 18 57  1  0  0  0  0
 18 58  1  0  0  0  0
 19 20  1  0  0  0  0
 19 59  1  0  0  0  0
 19 60  1  0  0  0  0
 20 61  1  0  0  0  0
 20 62  1  0  0  0  0
 22 27  1  0  0  0  0
 22 30  2  0  0  0  0
 23 24  1  0  0  0  0
 23 27  1  0  0  0  0
 23 29  2  0  0  0  0
 24 63  1  0  0  0  0
 24 64  1  0  0  0  0
 25 26  1  0  0  0  0
 25 28  2  0  0  0  0
 25 30  1  0  0  0  0
 26 33  1  0  0  0  0
 26 36  1  0  0  0  0
 28 31  1  0  0  0  0
 28 34  1  0  0  0  0
 29 32  1  0  0  0  0
 29 37  1  0  0  0  0
 30 65  1  0  0  0  0
 32 35  2  0  0  0  0
 32 39  1  0  0  0  0
 33 42  1  0  0  0  0
 33 66  1  0  0  0  0
 33 67  1  0  0  0  0
 34 68  1  0  0  0  0
 34 69  1  0  0  0  0
 35 40  1  0  0  0  0
 37 43  1  0  0  0  0
 37 70  1  0  0  0  0
 37 71  1  0  0  0  0
 38 39  2  0  0  0  0
 38 41  1  0  0  0  0
 39 72  1  0  0  0  0
 40 41  2  0  0  0  0
 40 73  1  0  0  0  0
 41 74  1  0  0  0  0
 42 75  1  0  0  0  0
 42 76  1  0  0  0  0
 42 77  1  0  0  0  0
 43 79  1  0  0  0  0
 43 80  1  0  0  0  0
 43 81  1  0  0  0  0
M  END
> <PUBCHEM_COMPOUND_CID>
3750

> <PUBCHEM_CONFORMER_RMSD>
1.2

> <PUBCHEM_CONFORMER_DIVERSEORDER>
2
40
4
34
30
15
32
47
26
11
41
20
29
33
7
54
8
51
31
19
36
16
38
14
52
6
28
18
10
17
5
42
23
45
13
37
44
35
24
46
25
27
43
21
12
49
9
50
53
1
39
22
3
48

> <PUBCHEM_MMFF94_PARTIAL_CHARGES>
39
1 -0.23
10 -0.62
11 0.27
14 0.27
15 0.27
16 0.3
17 0.3
2 -0.43
21 0.78
22 0.08
23 -0.14
24 0.44
25 -0.14
26 0.48
27 0.34
28 -0.12
29 -0.14
3 -0.57
30 -0.15
31 0.62
34 0.42
35 0.31
36 0.66
37 0.14
38 0.08
39 -0.15
4 -0.68
40 -0.15
41 -0.15
5 -0.57
6 -0.57
65 0.15
7 -0.81
72 0.15
73 0.15
74 0.15
78 0.4
8 -0.66
9 -0.47

> <PUBCHEM_EFFECTIVE_ROTOR_COUNT>
9.2

> <PUBCHEM_PHARMACOPHORE_FEATURES>
16
1 10 acceptor
1 3 acceptor
1 4 acceptor
1 4 donor
1 42 hydrophobe
1 43 hydrophobe
1 5 acceptor
1 6 acceptor
1 7 cation
5 9 22 23 24 27 rings
6 10 23 27 29 32 35 rings
6 2 25 26 28 34 36 rings
6 32 35 38 39 40 41 rings
6 7 14 15 18 19 20 rings
6 8 11 12 13 16 17 rings
6 9 22 25 28 30 31 rings

> <PUBCHEM_HEAVY_ATOM_COUNT>
43

> <PUBCHEM_ATOM_DEF_STEREO_COUNT>
0

> <PUBCHEM_ATOM_UDEF_STEREO_COUNT>
1

> <PUBCHEM_BOND_DEF_STEREO_COUNT>
0

> <PUBCHEM_BOND_UDEF_STEREO_COUNT>
0

> <PUBCHEM_ISOTOPIC_ATOM_COUNT>
0

> <PUBCHEM_COMPONENT_COUNT>
1

> <PUBCHEM_CACTVS_TAUTO_COUNT>
1

> <PUBCHEM_CONFORMER_ID>
00000EA600000002

> <PUBCHEM_MMFF94_ENERGY>
111.6482

> <PUBCHEM_FEATURE_SELFOVERLAP>
81.451

> <PUBCHEM_SHAPE_FINGERPRINT>
10168742 298 11602814646358976848
10580692 12 18342176669643763079
10674148 151 18335700568111040810
11061554 47 18342738511754682524
11409948 35 17560245718395924806
12013929 2 18273215288403727836
12013929 94 18335703909570126123
12089408 11 18333728027561843762
12133447 93 18341907242208574028
12144603 126 18114179753176925538
12522641 33 17489870410389692814
12664476 115 18261107487718067916
12741549 16 13695586650862721174
12838863 1 10592042466855512146
14394314 77 18334290968344717942
15061470 23 18411980279027721844
15065858 18 18060139852046956990
15247644 1 11458423527550968096
15289351 153 17918272060620726217
15461852 350 17346589799453216239
15510794 2 18131636673511129702
15530121 191 17775558754534654064
16992610 120 18411422817604752494
19315958 150 18412546484149830254
21026386 80 16630253523880845564
212700 22 8286204950805146624
21362267 313 18335698292511830586
21895431 317 10519720964896067660
24771293 8 18410855455896810295
335352 9 18411697699436918303
3991529 128 18335147487861070792
4017518 198 17489872656800442462
4353968 344 18200305646017281887
44280117 145 18129941295337882559
44802255 64 16271922680900769069
5028188 123 18272649090764331014
5719381 82 7853572418310965100
6673363 416 17489586758560979321
9937071 3 13767922408868653528

> <PUBCHEM_SHAPE_MULTIPOLES>
829.78
43.97
2.91
1.3
81.96
1.38
-0.6
-30.67
-4.57
-5.93
-0.17
0.99
-0.4
-0.83

> <PUBCHEM_SHAPE_SELFOVERLAP>
1830.23

> <PUBCHEM_SHAPE_VOLUME>
442.8

> <PUBCHEM_COORDINATE_TYPE>
2
5
10

$$$$
