65866
  -OEChem-09252020563D

 86 89  0     1  0  0  0  0  0999 V2000
    0.5705   -1.8250    0.2342 O   0  0  0  0  0  0  0  0  0  0  0  0
    1.3293   -2.4136   -1.8723 O   0  0  0  0  0  0  0  0  0  0  0  0
    1.9174    2.6097    1.8562 O   0  0  0  0  0  0  0  0  0  0  0  0
    3.2366    3.8615    0.4235 O   0  0  0  0  0  0  0  0  0  0  0  0
    7.4149   -1.5636    1.2526 O   0  5  0  0  0  0  0  0  0  0  0  0
    5.6338   -1.4891    2.5339 O   0  0  0  0  0  0  0  0  0  0  0  0
   -1.9520   -3.5448   -0.0930 N   0  0  1  0  0  0  0  0  0  0  0  0
    0.4245    1.8634   -2.2943 N   0  0  0  0  0  0  0  0  0  0  0  0
    6.2107   -1.2657    1.4422 N   0  3  0  0  0  0  0  0  0  0  0  0
    0.4433   -3.2047    0.5932 C   0  0  0  0  0  0  0  0  0  0  0  0
   -0.5551   -3.8234   -0.4029 C   0  0  0  0  0  0  0  0  0  0  0  0
   -2.3211   -2.2001   -0.5391 C   0  0  0  0  0  0  0  0  0  0  0  0
   -3.5638   -1.7146    0.2160 C   0  0  0  0  0  0  0  0  0  0  0  0
   -4.0131   -0.2975   -0.2276 C   0  0  0  0  0  0  0  0  0  0  0  0
    1.9772    0.6461   -0.2593 C   0  0  2  0  0  0  0  0  0  0  0  0
    1.8321   -3.8424    0.4933 C   0  0  0  0  0  0  0  0  0  0  0  0
   -0.0747   -3.2678    2.0330 C   0  0  0  0  0  0  0  0  0  0  0  0
    1.0970   -0.1429   -1.2338 C   0  0  0  0  0  0  0  0  0  0  0  0
   -2.8265   -4.5425   -0.7121 C   0  0  0  0  0  0  0  0  0  0  0  0
   -5.4857   -0.0187    0.0583 C   0  0  0  0  0  0  0  0  0  0  0  0
   -3.1264    0.8202    0.3066 C   0  0  0  0  0  0  0  0  0  0  0  0
    1.7989    2.1620   -0.3905 C   0  0  0  0  0  0  0  0  0  0  0  0
    1.0224   -1.5978   -1.0227 C   0  0  0  0  0  0  0  0  0  0  0  0
    0.3929    0.4811   -2.2051 C   0  0  0  0  0  0  0  0  0  0  0  0
    3.4199    0.2805   -0.4596 C   0  0  0  0  0  0  0  0  0  0  0  0
    1.0680    2.6976   -1.3942 C   0  0  0  0  0  0  0  0  0  0  0  0
   -6.2035    0.8496   -0.7643 C   0  0  0  0  0  0  0  0  0  0  0  0
   -2.9684    1.9959   -0.4272 C   0  0  0  0  0  0  0  0  0  0  0  0
   -6.1142   -0.6317    1.1421 C   0  0  0  0  0  0  0  0  0  0  0  0
   -2.4724    0.6680    1.5291 C   0  0  0  0  0  0  0  0  0  0  0  0
   -0.4581   -0.2033   -3.2405 C   0  0  0  0  0  0  0  0  0  0  0  0
    4.1387   -0.3171    0.5756 C   0  0  0  0  0  0  0  0  0  0  0  0
    4.0410    0.5386   -1.6816 C   0  0  0  0  0  0  0  0  0  0  0  0
    2.4177    2.9916    0.6563 C   0  0  0  0  0  0  0  0  0  0  0  0
    0.8713    4.1691   -1.6411 C   0  0  0  0  0  0  0  0  0  0  0  0
    5.4786   -0.6569    0.3888 C   0  0  0  0  0  0  0  0  0  0  0  0
   -7.5497    1.1046   -0.5031 C   0  0  0  0  0  0  0  0  0  0  0  0
   -2.1567    3.0194    0.0617 C   0  0  0  0  0  0  0  0  0  0  0  0
   -7.4605   -0.3767    1.4033 C   0  0  0  0  0  0  0  0  0  0  0  0
   -1.6605    1.6916    2.0180 C   0  0  0  0  0  0  0  0  0  0  0  0
    5.3809    0.1989   -1.8685 C   0  0  0  0  0  0  0  0  0  0  0  0
   -8.1782    0.4915    0.5807 C   0  0  0  0  0  0  0  0  0  0  0  0
   -1.5027    2.8673    1.2843 C   0  0  0  0  0  0  0  0  0  0  0  0
    6.0996   -0.3988   -0.8332 C   0  0  0  0  0  0  0  0  0  0  0  0
    2.4264    3.3307    2.9830 C   0  0  0  0  0  0  0  0  0  0  0  0
   -0.4125   -4.9093   -0.2921 H   0  0  0  0  0  0  0  0  0  0  0  0
   -0.3796   -3.6436   -1.4648 H   0  0  0  0  0  0  0  0  0  0  0  0
   -1.5506   -1.4652   -0.3250 H   0  0  0  0  0  0  0  0  0  0  0  0
   -2.4852   -2.1699   -1.6240 H   0  0  0  0  0  0  0  0  0  0  0  0
   -3.4271   -1.8196    1.2966 H   0  0  0  0  0  0  0  0  0  0  0  0
   -4.3849   -2.3986   -0.0352 H   0  0  0  0  0  0  0  0  0  0  0  0
   -3.9121   -0.2926   -1.3241 H   0  0  0  0  0  0  0  0  0  0  0  0
    1.6552    0.3727    0.7548 H   0  0  0  0  0  0  0  0  0  0  0  0
    2.1523   -4.0576   -0.5292 H   0  0  0  0  0  0  0  0  0  0  0  0
    2.5958   -3.2007    0.9472 H   0  0  0  0  0  0  0  0  0  0  0  0
    1.8470   -4.8053    1.0175 H   0  0  0  0  0  0  0  0  0  0  0  0
   -0.3007   -4.2951    2.3368 H   0  0  0  0  0  0  0  0  0  0  0  0
   -0.9647   -2.6464    2.1794 H   0  0  0  0  0  0  0  0  0  0  0  0
    0.6773   -2.8670    2.7234 H   0  0  0  0  0  0  0  0  0  0  0  0
   -2.5581   -5.5501   -0.3729 H   0  0  0  0  0  0  0  0  0  0  0  0
   -2.7642   -4.5272   -1.8065 H   0  0  0  0  0  0  0  0  0  0  0  0
   -3.8728   -4.4088   -0.4227 H   0  0  0  0  0  0  0  0  0  0  0  0
   -0.1116    2.2972   -3.0374 H   0  0  0  0  0  0  0  0  0  0  0  0
   -5.7347    1.3274   -1.6197 H   0  0  0  0  0  0  0  0  0  0  0  0
   -3.4607    2.1287   -1.3862 H   0  0  0  0  0  0  0  0  0  0  0  0
   -5.5835   -1.2972    1.8155 H   0  0  0  0  0  0  0  0  0  0  0  0
   -2.5802   -0.2121    2.1513 H   0  0  0  0  0  0  0  0  0  0  0  0
   -0.0495   -0.0239   -4.2407 H   0  0  0  0  0  0  0  0  0  0  0  0
   -0.5351   -1.2839   -3.1027 H   0  0  0  0  0  0  0  0  0  0  0  0
   -1.4784    0.1954   -3.2100 H   0  0  0  0  0  0  0  0  0  0  0  0
    3.6356   -0.5104    1.5203 H   0  0  0  0  0  0  0  0  0  0  0  0
    3.5046    1.0029   -2.5045 H   0  0  0  0  0  0  0  0  0  0  0  0
   -0.1576    4.3801   -1.9512 H   0  0  0  0  0  0  0  0  0  0  0  0
    1.0629    4.7770   -0.7526 H   0  0  0  0  0  0  0  0  0  0  0  0
    1.5391    4.5054   -2.4408 H   0  0  0  0  0  0  0  0  0  0  0  0
   -8.1093    1.7788   -1.1449 H   0  0  0  0  0  0  0  0  0  0  0  0
   -2.0433    3.9384   -0.5047 H   0  0  0  0  0  0  0  0  0  0  0  0
   -7.9491   -0.8504    2.2499 H   0  0  0  0  0  0  0  0  0  0  0  0
   -1.1545    1.5762    2.9721 H   0  0  0  0  0  0  0  0  0  0  0  0
    5.8641    0.3998   -2.8202 H   0  0  0  0  0  0  0  0  0  0  0  0
   -9.2263    0.6905    0.7844 H   0  0  0  0  0  0  0  0  0  0  0  0
   -0.8750    3.6668    1.6667 H   0  0  0  0  0  0  0  0  0  0  0  0
    7.1416   -0.6497   -1.0149 H   0  0  0  0  0  0  0  0  0  0  0  0
    1.9453    2.9377    3.8826 H   0  0  0  0  0  0  0  0  0  0  0  0
    2.1861    4.3943    2.8924 H   0  0  0  0  0  0  0  0  0  0  0  0
    3.5072    3.1836    3.0693 H   0  0  0  0  0  0  0  0  0  0  0  0
  1 10  1  0  0  0  0
  1 23  1  0  0  0  0
  2 23  2  0  0  0  0
  3 34  1  0  0  0  0
  3 45  1  0  0  0  0
  4 34  2  0  0  0  0
  5  9  1  0  0  0  0
  6  9  2  0  0  0  0
  7 11  1  0  0  0  0
  7 12  1  0  0  0  0
  7 19  1  0  0  0  0
  8 24  1  0  0  0  0
  8 26  1  0  0  0  0
  8 63  1  0  0  0  0
  9 36  1  0  0  0  0
 10 11  1  0  0  0  0
 10 16  1  0  0  0  0
 10 17  1  0  0  0  0
 11 46  1  0  0  0  0
 11 47  1  0  0  0  0
 12 13  1  0  0  0  0
 12 48  1  0  0  0  0
 12 49  1  0  0  0  0
 13 14  1  0  0  0  0
 13 50  1  0  0  0  0
 13 51  1  0  0  0  0
 14 20  1  0  0  0  0
 14 21  1  0  0  0  0
 14 52  1  0  0  0  0
 15 18  1  0  0  0  0
 15 22  1  0  0  0  0
 15 25  1  0  0  0  0
 15 53  1  0  0  0  0
 16 54  1  0  0  0  0
 16 55  1  0  0  0  0
 16 56  1  0  0  0  0
 17 57  1  0  0  0  0
 17 58  1  0  0  0  0
 17 59  1  0  0  0  0
 18 23  1  0  0  0  0
 18 24  2  0  0  0  0
 19 60  1  0  0  0  0
 19 61  1  0  0  0  0
 19 62  1  0  0  0  0
 20 27  2  0  0  0  0
 20 29  1  0  0  0  0
 21 28  2  0  0  0  0
 21 30  1  0  0  0  0
 22 26  2  0  0  0  0
 22 34  1  0  0  0  0
 24 31  1  0  0  0  0
 25 32  2  0  0  0  0
 25 33  1  0  0  0  0
 26 35  1  0  0  0  0
 27 37  1  0  0  0  0
 27 64  1  0  0  0  0
 28 38  1  0  0  0  0
 28 65  1  0  0  0  0
 29 39  2  0  0  0  0
 29 66  1  0  0  0  0
 30 40  2  0  0  0  0
 30 67  1  0  0  0  0
 31 68  1  0  0  0  0
 31 69  1  0  0  0  0
 31 70  1  0  0  0  0
 32 36  1  0  0  0  0
 32 71  1  0  0  0  0
 33 41  2  0  0  0  0
 33 72  1  0  0  0  0
 35 73  1  0  0  0  0
 35 74  1  0  0  0  0
 35 75  1  0  0  0  0
 36 44  2  0  0  0  0
 37 42  2  0  0  0  0
 37 76  1  0  0  0  0
 38 43  2  0  0  0  0
 38 77  1  0  0  0  0
 39 42  1  0  0  0  0
 39 78  1  0  0  0  0
 40 43  1  0  0  0  0
 40 79  1  0  0  0  0
 41 44  1  0  0  0  0
 41 80  1  0  0  0  0
 42 81  1  0  0  0  0
 43 82  1  0  0  0  0
 44 83  1  0  0  0  0
 45 84  1  0  0  0  0
 45 85  1  0  0  0  0
 45 86  1  0  0  0  0
M  CHG  2   5  -1   9   1
M  END
> <PUBCHEM_COMPOUND_CID>
65866

> <PUBCHEM_CONFORMER_RMSD>
1.4

> <PUBCHEM_CONFORMER_DIVERSEORDER>
2
187
165
215
133
195
75
184
73
26
31
239
38
22
263
241
190
32
46
238
80
273
245
71
14
189
124
27
129
67
257
182
1
205
113
72
180
103
97
218
148
3
55
191
144
131
92
114
60
91
7
172
233
115
42
125
231
225
83
181
270
54
229
280
204
29
156
25
175
118
185
216
214
149
243
49
228
234
166
193
86
8
275
261
139
220
62
138
102
237
236
13
274
146
178
155
250
110
242
68
174
217
253
158
279
105
123
194
152
206
10
39
98
82
266
213
277
177
88
78
9
85
167
100
56
276
53
221
202
134
219
259
65
170
164
223
77
48
246
94
268
15
147
173
179
252
89
186
109
226
120
87
192
269
90
258
271
52
137
43
84
196
130
37
262
197
127
116
160
41
153
58
188
199
44
5
247
108
209
200
265
70
232
40
51
81
126
16
154
157
212
128
96
249
235
163
256
142
141
6
207
74
254
278
93
121
151
203
45
211
272
264
198
99
50
30
222
11
135
161
169
66
57
21
244
76
117
208
227
201
63
106
224
4
240
267
64
248
95
112
107
255
136
33
260
122
168
140
183
79
69
59
119
230
12
35
143
159
251
171
20
19
210
101
104
47
24
176
61
145
17
23
34
162
36
150
28
132
18
111

> <PUBCHEM_MMFF94_PARTIAL_CHARGES>
57
1 -0.43
10 0.28
11 0.27
12 0.27
14 0.29
15 0.42
18 -0.12
19 0.27
2 -0.57
20 -0.14
21 -0.14
22 -0.12
23 0.71
24 -0.04
25 -0.14
26 -0.04
27 -0.15
28 -0.15
29 -0.15
3 -0.43
30 -0.15
31 0.14
32 -0.15
33 -0.15
34 0.71
35 0.14
36 0.13
37 -0.15
38 -0.15
39 -0.15
4 -0.57
40 -0.15
41 -0.15
42 -0.15
43 -0.15
44 -0.15
45 0.28
5 -0.52
6 -0.52
63 0.4
64 0.15
65 0.15
66 0.15
67 0.15
7 -0.81
71 0.15
72 0.15
76 0.15
77 0.15
78 0.15
79 0.15
8 -0.6
80 0.15
81 0.15
82 0.15
83 0.15
9 0.91

> <PUBCHEM_EFFECTIVE_ROTOR_COUNT>
14.4

> <PUBCHEM_PHARMACOPHORE_FEATURES>
13
1 2 acceptor
1 4 acceptor
1 5 acceptor
1 5 anion
1 6 acceptor
1 7 cation
1 8 cation
1 8 donor
3 10 16 17 hydrophobe
6 20 27 29 37 39 42 rings
6 21 28 30 38 40 43 rings
6 25 32 33 36 41 44 rings
6 8 15 18 22 24 26 rings

> <PUBCHEM_HEAVY_ATOM_COUNT>
45

> <PUBCHEM_ATOM_DEF_STEREO_COUNT>
0

> <PUBCHEM_ATOM_UDEF_STEREO_COUNT>
1

> <PUBCHEM_BOND_DEF_STEREO_COUNT>
0

> <PUBCHEM_BOND_UDEF_STEREO_COUNT>
0

> <PUBCHEM_ISOTOPIC_ATOM_COUNT>
0

> <PUBCHEM_COMPONENT_COUNT>
1

> <PUBCHEM_CACTVS_TAUTO_COUNT>
3

> <PUBCHEM_CONFORMER_ID>
0001014A00000002

> <PUBCHEM_MMFF94_ENERGY>
142.5356

> <PUBCHEM_FEATURE_SELFOVERLAP>
66.053

> <PUBCHEM_SHAPE_FINGERPRINT>
10439779 11 18412261696988047107
1100329 8 18338242681859833103
11578080 2 18120377824708640140
12107698 1 17346605144849599081
14068700 675 18412541028918625021
14117953 113 18410581665260008269
14725015 67 18272082777783211641
16112460 7 18272099326387077192
16728300 4 17751344097796077226
20764821 26 18197792195988113755
22223350 30 18125160682808695651
23559900 14 18340771558562052317
24893992 56 18410014365027143339
3178227 256 18410013229937036560
392239 28 18342465867625838827
463206 1 18270120240233185805
6679774 75 18113891689162000907

> <PUBCHEM_SHAPE_MULTIPOLES>
875.92
15.53
5.28
2.35
13.31
1.65
0.02
0.97
4.29
-1.22
0.84
-2.01
-0.86
-0.59

> <PUBCHEM_SHAPE_SELFOVERLAP>
1874.157

> <PUBCHEM_SHAPE_VOLUME>
483.3

> <PUBCHEM_COORDINATE_TYPE>
2
5
10

$$$$
