22055035
  -OEChem-09252020573D

 59 60  0     1  0  0  0  0  0999 V2000
   -3.6228   -2.5111    0.5963 F   0  0  0  0  0  0  0  0  0  0  0  0
   -4.4441   -0.7255    1.5374 F   0  0  0  0  0  0  0  0  0  0  0  0
   -2.0586    0.6156    1.2738 O   0  0  0  0  0  0  0  0  0  0  0  0
   -1.9692   -1.4337    2.4680 O   0  0  0  0  0  0  0  0  0  0  0  0
   -0.2344    3.8922   -0.3240 O   0  0  0  0  0  0  0  0  0  0  0  0
    6.2952   -3.4257   -0.8583 O   0  0  0  0  0  0  0  0  0  0  0  0
    5.5508   -2.3363    0.9897 O   0  0  0  0  0  0  0  0  0  0  0  0
    0.3784    0.6406    0.9372 C   0  0  2  0  0  0  0  0  0  0  0  0
   -0.8141    1.1019    1.7828 C   0  0  1  0  0  0  0  0  0  0  0  0
    0.2973    1.5228   -0.3245 C   0  0  1  0  0  0  0  0  0  0  0  0
    0.3372   -0.8596    0.6572 C   0  0  0  0  0  0  0  0  0  0  0  0
   -0.8043    2.6238    1.6471 C   0  0  0  0  0  0  0  0  0  0  0  0
   -2.1343   -0.8113    1.1928 C   0  0  2  0  0  0  0  0  0  0  0  0
   -1.0527   -1.3363    0.2408 C   0  0  0  0  0  0  0  0  0  0  0  0
   -0.2448    2.8140    0.2574 C   0  0  0  0  0  0  0  0  0  0  0  0
    1.6394    1.7159   -1.0073 C   0  0  0  0  0  0  0  0  0  0  0  0
   -3.5201   -1.1635    0.6521 C   0  0  0  0  0  0  0  0  0  0  0  0
    2.7052    2.2056   -0.0246 C   0  0  0  0  0  0  0  0  0  0  0  0
   -3.7752   -0.5600   -0.7170 C   0  0  0  0  0  0  0  0  0  0  0  0
    4.0452    2.4345   -0.7268 C   0  0  0  0  0  0  0  0  0  0  0  0
   -5.1614   -0.9449   -1.2417 C   0  0  0  0  0  0  0  0  0  0  0  0
    4.6074    1.1751   -1.3932 C   0  0  0  0  0  0  0  0  0  0  0  0
   -5.4090   -0.3631   -2.6336 C   0  0  0  0  0  0  0  0  0  0  0  0
    4.9008   -0.0002   -0.4564 C   0  0  0  0  0  0  0  0  0  0  0  0
    5.5109   -1.2074   -1.1676 C   0  0  0  0  0  0  0  0  0  0  0  0
   -6.7970   -0.7137   -3.1453 C   0  0  0  0  0  0  0  0  0  0  0  0
    5.7741   -2.3497   -0.2127 C   0  0  0  0  0  0  0  0  0  0  0  0
    1.2648    0.8473    1.5395 H   0  0  0  0  0  0  0  0  0  0  0  0
   -0.7222    0.8107    2.8351 H   0  0  0  0  0  0  0  0  0  0  0  0
   -0.4475    1.1522   -1.0370 H   0  0  0  0  0  0  0  0  0  0  0  0
    1.0656   -1.1233   -0.1186 H   0  0  0  0  0  0  0  0  0  0  0  0
    0.6588   -1.3988    1.5562 H   0  0  0  0  0  0  0  0  0  0  0  0
   -1.8025    3.0624    1.7178 H   0  0  0  0  0  0  0  0  0  0  0  0
   -0.1127    3.0833    2.3592 H   0  0  0  0  0  0  0  0  0  0  0  0
   -1.0563   -2.4326    0.2167 H   0  0  0  0  0  0  0  0  0  0  0  0
   -1.1942   -0.9842   -0.7829 H   0  0  0  0  0  0  0  0  0  0  0  0
    1.5398    2.4356   -1.8289 H   0  0  0  0  0  0  0  0  0  0  0  0
    1.9329    0.7592   -1.4506 H   0  0  0  0  0  0  0  0  0  0  0  0
    2.8928    1.5005    0.7859 H   0  0  0  0  0  0  0  0  0  0  0  0
    2.3990    3.1509    0.4376 H   0  0  0  0  0  0  0  0  0  0  0  0
   -3.7052    0.5329   -0.6760 H   0  0  0  0  0  0  0  0  0  0  0  0
   -3.0581   -0.9218   -1.4577 H   0  0  0  0  0  0  0  0  0  0  0  0
   -1.0282   -1.5785    2.6490 H   0  0  0  0  0  0  0  0  0  0  0  0
    3.9311    3.2183   -1.4856 H   0  0  0  0  0  0  0  0  0  0  0  0
    4.7707    2.8096    0.0052 H   0  0  0  0  0  0  0  0  0  0  0  0
   -5.9302   -0.5805   -0.5495 H   0  0  0  0  0  0  0  0  0  0  0  0
   -5.2540   -2.0371   -1.2815 H   0  0  0  0  0  0  0  0  0  0  0  0
    5.5494    1.4599   -1.8807 H   0  0  0  0  0  0  0  0  0  0  0  0
    3.9524    0.8456   -2.2071 H   0  0  0  0  0  0  0  0  0  0  0  0
   -4.6592   -0.7448   -3.3363 H   0  0  0  0  0  0  0  0  0  0  0  0
   -5.3024    0.7276   -2.6060 H   0  0  0  0  0  0  0  0  0  0  0  0
    5.5757    0.3348    0.3413 H   0  0  0  0  0  0  0  0  0  0  0  0
    3.9742   -0.3200    0.0347 H   0  0  0  0  0  0  0  0  0  0  0  0
    6.4618   -0.9230   -1.6311 H   0  0  0  0  0  0  0  0  0  0  0  0
    4.8257   -1.5627   -1.9449 H   0  0  0  0  0  0  0  0  0  0  0  0
   -6.9270   -1.7984   -3.2146 H   0  0  0  0  0  0  0  0  0  0  0  0
   -6.9521   -0.2886   -4.1418 H   0  0  0  0  0  0  0  0  0  0  0  0
   -7.5718   -0.3161   -2.4820 H   0  0  0  0  0  0  0  0  0  0  0  0
    6.4660   -4.1722   -0.2452 H   0  0  0  0  0  0  0  0  0  0  0  0
  1 17  1  0  0  0  0
  2 17  1  0  0  0  0
  3  9  1  0  0  0  0
  3 13  1  0  0  0  0
  4 13  1  0  0  0  0
  4 43  1  0  0  0  0
  5 15  2  0  0  0  0
  6 27  1  0  0  0  0
  6 59  1  0  0  0  0
  7 27  2  0  0  0  0
  8  9  1  0  0  0  0
  8 10  1  0  0  0  0
  8 11  1  0  0  0  0
  8 28  1  0  0  0  0
  9 12  1  0  0  0  0
  9 29  1  0  0  0  0
 10 15  1  0  0  0  0
 10 16  1  0  0  0  0
 10 30  1  0  0  0  0
 11 14  1  0  0  0  0
 11 31  1  0  0  0  0
 11 32  1  0  0  0  0
 12 15  1  0  0  0  0
 12 33  1  0  0  0  0
 12 34  1  0  0  0  0
 13 14  1  0  0  0  0
 13 17  1  0  0  0  0
 14 35  1  0  0  0  0
 14 36  1  0  0  0  0
 16 18  1  0  0  0  0
 16 37  1  0  0  0  0
 16 38  1  0  0  0  0
 17 19  1  0  0  0  0
 18 20  1  0  0  0  0
 18 39  1  0  0  0  0
 18 40  1  0  0  0  0
 19 21  1  0  0  0  0
 19 41  1  0  0  0  0
 19 42  1  0  0  0  0
 20 22  1  0  0  0  0
 20 44  1  0  0  0  0
 20 45  1  0  0  0  0
 21 23  1  0  0  0  0
 21 46  1  0  0  0  0
 21 47  1  0  0  0  0
 22 24  1  0  0  0  0
 22 48  1  0  0  0  0
 22 49  1  0  0  0  0
 23 26  1  0  0  0  0
 23 50  1  0  0  0  0
 23 51  1  0  0  0  0
 24 25  1  0  0  0  0
 24 52  1  0  0  0  0
 24 53  1  0  0  0  0
 25 27  1  0  0  0  0
 25 54  1  0  0  0  0
 25 55  1  0  0  0  0
 26 56  1  0  0  0  0
 26 57  1  0  0  0  0
 26 58  1  0  0  0  0
M  END
> <PUBCHEM_COMPOUND_CID>
22055035

> <PUBCHEM_CONFORMER_RMSD>
1.4

> <PUBCHEM_CONFORMER_DIVERSEORDER>
1
131
37
46
32
23
181
99
121
6
225
224
133
43
206
128
24
217
171
134
10
123
158
236
106
122
7
20
57
191
56
178
152
182
233
22
101
18
63
75
221
188
169
175
213
141
228
95
137
138
185
168
146
117
120
14
242
102
4
140
164
68
88
28
220
194
201
73
203
111
17
156
92
97
98
9
125
50
163
19
65
35
21
197
147
66
15
210
3
83
114
52
85
215
196
223
124
154
218
39
153
219
62
183
207
193
113
177
173
148
5
96
16
30
41
77
72
103
229
29
51
186
232
34
189
79
25
13
93
58
70
239
144
190
53
64
130
187
159
139
214
74
226
100
11
44
237
54
151
118
12
150
198
109
104
81
82
209
116
199
180
110
205
59
172
8
127
87
86
132
31
157
170
45
161
176
105
179
227
60
234
80
26
47
89
216
230
49
165
84
145
107
108
174
240
38
36
162
192
142
115
90
69
55
119
184
129
166
135
222
202
160
149
67
40
76
235
2
231
143
208
27
238
94
42
211
91
167
136
200
78
241
204
126
71
61
212
155
112
195
48
33

> <PUBCHEM_MMFF94_PARTIAL_CHARGES>
17
1 -0.34
10 0.06
12 0.06
13 0.56
15 0.45
17 0.68
2 -0.34
25 0.06
27 0.66
3 -0.56
4 -0.68
43 0.4
5 -0.57
59 0.5
6 -0.65
7 -0.57
9 0.28

> <PUBCHEM_EFFECTIVE_ROTOR_COUNT>
12.2

> <PUBCHEM_PHARMACOPHORE_FEATURES>
12
1 26 hydrophobe
1 3 acceptor
1 4 acceptor
1 4 donor
1 5 acceptor
1 6 acceptor
1 7 acceptor
3 16 18 20 hydrophobe
3 22 24 25 hydrophobe
3 6 7 27 anion
5 8 9 10 12 15 rings
6 3 8 9 11 13 14 rings

> <PUBCHEM_HEAVY_ATOM_COUNT>
27

> <PUBCHEM_ATOM_DEF_STEREO_COUNT>
0

> <PUBCHEM_ATOM_UDEF_STEREO_COUNT>
4

> <PUBCHEM_BOND_DEF_STEREO_COUNT>
0

> <PUBCHEM_BOND_UDEF_STEREO_COUNT>
0

> <PUBCHEM_ISOTOPIC_ATOM_COUNT>
0

> <PUBCHEM_COMPONENT_COUNT>
1

> <PUBCHEM_CACTVS_TAUTO_COUNT>
3

> <PUBCHEM_CONFORMER_ID>
0150887B00000001

> <PUBCHEM_MMFF94_ENERGY>
39.5135

> <PUBCHEM_FEATURE_SELFOVERLAP>
61.203

> <PUBCHEM_SHAPE_FINGERPRINT>
10429389 16 18040427768122336204
10693767 8 18271793666391526455
11135926 11 18193010416078031972
11475781 23 17240754116908976020
11578080 2 13190911835546409968
11720765 8 18270668891956402469
1200032 147 16154537659640934437
12390115 104 7853561418604385944
12422481 6 17842028544121162378
13004483 165 18342748420275623096
13134695 92 17771638011865348441
13533116 47 18339655515968566400
13782708 43 17678471963743433947
14866123 147 18120950412109647072
14931854 50 18115564021426961157
15052358 14 17603861182881677383
15163728 17 13406792220702780088
15183329 4 18040427793733682357
15420108 30 17474398967580041848
17349148 13 17559694994789600644
19309040 13 12324251559671171722
19958102 18 17968092010485186852
20621476 91 14908181979839002103
21033650 10 15864075377325579484
21279426 13 17967810552656508191
21315764 371 15338848564157716638
21458453 9 11815327303290179925
21703447 108 18412542141969581584
23536364 44 18261383400247750949
23559900 14 18261680367456003264
23622692 118 18339647742220211388
3459 83 18409731742529293149
3729539 64 18260829301931847275
38570 142 15502648257602928109
392239 28 9367077635506844141
437795 139 17059197311033176935
437795 70 16805321059452694910
46194498 28 17170686754559484565
50009960 94 13756067581904077701
56633871 153 17833849174866094586
59682541 52 18338785819086836053
6034566 193 8934702402087845696
7808743 9 16299488613992567429

> <PUBCHEM_SHAPE_MULTIPOLES>
511.75
14.63
3.66
2.26
3.42
1.04
-0.6
-13.85
-11.18
4.99
0.12
-4.11
-0.39
-0.88

> <PUBCHEM_SHAPE_SELFOVERLAP>
1038.858

> <PUBCHEM_SHAPE_VOLUME>
298.6

> <PUBCHEM_COORDINATE_TYPE>
2
5
10

$$$$
