151166
  -OEChem-09252020573D

 33 34  0     0  0  0  0  0  0999 V2000
    2.4378   -2.4779    1.2462 Cl  0  0  0  0  0  0  0  0  0  0  0  0
    1.3768    1.9199   -1.1192 F   0  0  0  0  0  0  0  0  0  0  0  0
   -2.4268   -3.7121   -0.8896 O   0  0  0  0  0  0  0  0  0  0  0  0
   -2.4776   -2.4429    0.9921 O   0  0  0  0  0  0  0  0  0  0  0  0
    0.5324   -0.4386    0.0362 N   0  0  0  0  0  0  0  0  0  0  0  0
   -1.8337   -0.0782   -0.4411 C   0  0  0  0  0  0  0  0  0  0  0  0
   -0.6314    0.3571    0.1163 C   0  0  0  0  0  0  0  0  0  0  0  0
   -2.9733    0.7212   -0.3531 C   0  0  0  0  0  0  0  0  0  0  0  0
   -2.9108    1.9561    0.2927 C   0  0  0  0  0  0  0  0  0  0  0  0
   -1.9293   -1.3967   -1.1375 C   0  0  0  0  0  0  0  0  0  0  0  0
   -0.5688    1.5919    0.7621 C   0  0  0  0  0  0  0  0  0  0  0  0
   -1.7084    2.3913    0.8504 C   0  0  0  0  0  0  0  0  0  0  0  0
    1.9020   -0.1197   -0.0193 C   0  0  0  0  0  0  0  0  0  0  0  0
   -4.1288    2.8112    0.3876 C   0  0  0  0  0  0  0  0  0  0  0  0
    2.8721   -0.9794    0.5042 C   0  0  0  0  0  0  0  0  0  0  0  0
    2.2942    1.0839   -0.6120 C   0  0  0  0  0  0  0  0  0  0  0  0
   -2.3033   -2.5386   -0.2150 C   0  0  0  0  0  0  0  0  0  0  0  0
    4.2228   -0.6381    0.4359 C   0  0  0  0  0  0  0  0  0  0  0  0
    3.6449    1.4252   -0.6805 C   0  0  0  0  0  0  0  0  0  0  0  0
    4.6092    0.5642   -0.1564 C   0  0  0  0  0  0  0  0  0  0  0  0
   -3.9124    0.3842   -0.7859 H   0  0  0  0  0  0  0  0  0  0  0  0
   -0.9931   -1.6461   -1.6493 H   0  0  0  0  0  0  0  0  0  0  0  0
   -2.6980   -1.3385   -1.9191 H   0  0  0  0  0  0  0  0  0  0  0  0
    0.3445    1.9460    1.2324 H   0  0  0  0  0  0  0  0  0  0  0  0
    0.3547   -1.4360    0.1087 H   0  0  0  0  0  0  0  0  0  0  0  0
   -1.6481    3.3492    1.3603 H   0  0  0  0  0  0  0  0  0  0  0  0
   -5.0342    2.1996    0.4646 H   0  0  0  0  0  0  0  0  0  0  0  0
   -4.0974    3.4494    1.2772 H   0  0  0  0  0  0  0  0  0  0  0  0
   -4.2096    3.4493   -0.4979 H   0  0  0  0  0  0  0  0  0  0  0  0
    4.9870   -1.2978    0.8393 H   0  0  0  0  0  0  0  0  0  0  0  0
    3.9455    2.3614   -1.1417 H   0  0  0  0  0  0  0  0  0  0  0  0
    5.6608    0.8301   -0.2098 H   0  0  0  0  0  0  0  0  0  0  0  0
   -2.6684   -4.4525   -0.2931 H   0  0  0  0  0  0  0  0  0  0  0  0
  1 15  1  0  0  0  0
  2 16  1  0  0  0  0
  3 17  1  0  0  0  0
  3 33  1  0  0  0  0
  4 17  2  0  0  0  0
  5  7  1  0  0  0  0
  5 13  1  0  0  0  0
  5 25  1  0  0  0  0
  6  7  2  0  0  0  0
  6  8  1  0  0  0  0
  6 10  1  0  0  0  0
  7 11  1  0  0  0  0
  8  9  2  0  0  0  0
  8 21  1  0  0  0  0
  9 12  1  0  0  0  0
  9 14  1  0  0  0  0
 10 17  1  0  0  0  0
 10 22  1  0  0  0  0
 10 23  1  0  0  0  0
 11 12  2  0  0  0  0
 11 24  1  0  0  0  0
 12 26  1  0  0  0  0
 13 15  1  0  0  0  0
 13 16  2  0  0  0  0
 14 27  1  0  0  0  0
 14 28  1  0  0  0  0
 14 29  1  0  0  0  0
 15 18  2  0  0  0  0
 16 19  1  0  0  0  0
 18 20  1  0  0  0  0
 18 30  1  0  0  0  0
 19 20  2  0  0  0  0
 19 31  1  0  0  0  0
 20 32  1  0  0  0  0
M  END
> <PUBCHEM_COMPOUND_CID>
151166

> <PUBCHEM_CONFORMER_RMSD>
0.6

> <PUBCHEM_CONFORMER_DIVERSEORDER>
2
25
41
23
62
31
39
64
68
59
54
46
60
61
17
71
69
43
55
12
49
15
63
3
51
38
18
67
8
37
36
13
58
11
1
53
57
30
56
32
10
27
5
52
34
45
4
29
26
33
35
40
22
6
47
42
20
24
44
21
16
48
65
70
50
28
66
14
9
19
7

> <PUBCHEM_MMFF94_PARTIAL_CHARGES>
28
1 -0.18
10 0.2
11 -0.15
12 -0.15
13 0.1
14 0.14
15 0.18
16 0.19
17 0.66
18 -0.15
19 -0.15
2 -0.19
20 -0.15
21 0.15
24 0.15
25 0.4
26 0.15
3 -0.65
30 0.15
31 0.15
32 0.15
33 0.5
4 -0.57
5 -0.6
6 -0.14
7 0.1
8 -0.15
9 -0.14

> <PUBCHEM_EFFECTIVE_ROTOR_COUNT>
4

> <PUBCHEM_PHARMACOPHORE_FEATURES>
7
1 3 acceptor
1 4 acceptor
1 5 cation
1 5 donor
3 3 4 17 anion
6 13 15 16 18 19 20 rings
6 6 7 8 9 11 12 rings

> <PUBCHEM_HEAVY_ATOM_COUNT>
20

> <PUBCHEM_ATOM_DEF_STEREO_COUNT>
0

> <PUBCHEM_ATOM_UDEF_STEREO_COUNT>
0

> <PUBCHEM_BOND_DEF_STEREO_COUNT>
0

> <PUBCHEM_BOND_UDEF_STEREO_COUNT>
0

> <PUBCHEM_ISOTOPIC_ATOM_COUNT>
0

> <PUBCHEM_COMPONENT_COUNT>
1

> <PUBCHEM_CACTVS_TAUTO_COUNT>
1

> <PUBCHEM_CONFORMER_ID>
00024E7E00000002

> <PUBCHEM_MMFF94_ENERGY>
62.9825

> <PUBCHEM_FEATURE_SELFOVERLAP>
35.578

> <PUBCHEM_SHAPE_FINGERPRINT>
10062212 137 18333724732736066666
10616163 171 18411982472701137718
11578080 2 17416679353133913161
12173636 292 18269832013156851565
12236239 1 18339079272506191184
12403814 3 18040434361208592109
12500047 106 18341607079760884816
12553582 1 18053095413432574911
12592029 89 17978234855433856841
12788726 201 18342446072042976335
13140716 1 18271809093782074225
13538477 17 18411980247965723752
13583140 156 17603591785833245585
13631057 29 18267862972720313534
14178342 30 18336250315335013640
14787075 74 17619909895636121076
15279307 12 18336265648078330642
15669948 3 18272925016426653284
16752209 62 18201990049620516623
17492 89 18410857698408269862
20645476 183 18410292463357680037
21524375 3 17985261872817555245
22224240 67 18130236961181665529
23184049 59 18045785585120785552
23402539 116 18059563634211895709
23493267 7 18201445757089145686
23557571 272 17988646319699421196
23558518 356 18262804102335318632
23559900 14 17917149404120547004
23598288 3 18271525385474902959
23598291 2 18335132064538389966
23728640 28 18342171133795253347
34934 24 18335420119568502296
352729 6 18270402664202353595
3759504 43 18337110064925027509
474 4 18040723571584861428
474229 33 18340210700890252249
5104073 3 18335695058011008704
6992083 37 18261114032446139852
7097593 13 18263355894132789442
7832392 63 18408604730241628036
9709674 26 18201723925020348422

> <PUBCHEM_SHAPE_MULTIPOLES>
389.47
7.83
3.6
1.04
4.21
2.67
-0.03
-2.44
-0.33
-3.58
-0.07
0.06
0.21
-1.76

> <PUBCHEM_SHAPE_SELFOVERLAP>
826.438

> <PUBCHEM_SHAPE_VOLUME>
217.7

> <PUBCHEM_COORDINATE_TYPE>
2
5
10

$$$$
