71358229
  -OEChem-09252020573D

 33 34  0     1  0  0  0  0  0999 V2000
    3.4828   -2.2409   -0.0356 O   0  0  0  0  0  0  0  0  0  0  0  0
   -4.2354   -1.5562   -0.8137 O   0  0  0  0  0  0  0  0  0  0  0  0
    1.0176    2.7017    0.2069 N   0  0  0  0  0  0  0  0  0  0  0  0
   -3.4082    0.3853    0.1717 N   0  0  0  0  0  0  0  0  0  0  0  0
   -0.4559    0.8173    0.1739 C   0  0  1  0  0  0  0  0  0  0  0  0
   -1.2702    0.4325   -1.0467 C   0  0  0  0  0  0  0  0  0  0  0  0
    0.9696    0.3732    0.1182 C   0  0  0  0  0  0  0  0  0  0  0  0
    1.7752    1.5179    0.1444 C   0  0  0  0  0  0  0  0  0  0  0  0
   -0.2261    2.3244    0.2235 C   0  0  0  0  0  0  0  0  0  0  0  0
   -2.7166    0.9131   -0.9716 C   0  0  0  0  0  0  0  0  0  0  0  0
    1.5145   -0.8958    0.0601 C   0  0  0  0  0  0  0  0  0  0  0  0
    3.1553    1.4150    0.1080 C   0  0  0  0  0  0  0  0  0  0  0  0
    2.9059   -1.0076    0.0233 C   0  0  0  0  0  0  0  0  0  0  0  0
    3.7197    0.1381    0.0467 C   0  0  0  0  0  0  0  0  0  0  0  0
   -4.1134   -0.8113    0.1552 C   0  0  0  0  0  0  0  0  0  0  0  0
   -4.7210   -1.1412    1.4922 C   0  0  0  0  0  0  0  0  0  0  0  0
    2.6060   -3.3654   -0.0566 C   0  0  0  0  0  0  0  0  0  0  0  0
   -0.9174    0.5005    1.1146 H   0  0  0  0  0  0  0  0  0  0  0  0
   -1.2626   -0.6592   -1.1624 H   0  0  0  0  0  0  0  0  0  0  0  0
   -0.8159    0.8441   -1.9578 H   0  0  0  0  0  0  0  0  0  0  0  0
   -2.7740    2.0043   -0.9179 H   0  0  0  0  0  0  0  0  0  0  0  0
   -3.2467    0.6033   -1.8793 H   0  0  0  0  0  0  0  0  0  0  0  0
   -1.0686    3.0266    0.2927 H   0  0  0  0  0  0  0  0  0  0  0  0
    0.8307   -1.7353    0.0486 H   0  0  0  0  0  0  0  0  0  0  0  0
    3.7866    2.2967    0.1266 H   0  0  0  0  0  0  0  0  0  0  0  0
   -3.3662    0.9185    1.0355 H   0  0  0  0  0  0  0  0  0  0  0  0
    4.8017    0.0344    0.0174 H   0  0  0  0  0  0  0  0  0  0  0  0
   -5.2383   -0.2683    1.9005 H   0  0  0  0  0  0  0  0  0  0  0  0
   -5.4436   -1.9539    1.3780 H   0  0  0  0  0  0  0  0  0  0  0  0
   -3.9327   -1.4536    2.1825 H   0  0  0  0  0  0  0  0  0  0  0  0
    2.0188   -3.4357    0.8653 H   0  0  0  0  0  0  0  0  0  0  0  0
    1.9749   -3.3676   -0.9519 H   0  0  0  0  0  0  0  0  0  0  0  0
    3.2319   -4.2625   -0.1053 H   0  0  0  0  0  0  0  0  0  0  0  0
  1 13  1  0  0  0  0
  1 17  1  0  0  0  0
  2 15  2  0  0  0  0
  3  8  1  0  0  0  0
  3  9  2  0  0  0  0
  4 10  1  0  0  0  0
  4 15  1  0  0  0  0
  4 26  1  0  0  0  0
  5  6  1  0  0  0  0
  5  7  1  0  0  0  0
  5  9  1  0  0  0  0
  5 18  1  0  0  0  0
  6 10  1  0  0  0  0
  6 19  1  0  0  0  0
  6 20  1  0  0  0  0
  7  8  2  0  0  0  0
  7 11  1  0  0  0  0
  8 12  1  0  0  0  0
  9 23  1  0  0  0  0
 10 21  1  0  0  0  0
 10 22  1  0  0  0  0
 11 13  2  0  0  0  0
 11 24  1  0  0  0  0
 12 14  2  0  0  0  0
 12 25  1  0  0  0  0
 13 14  1  0  0  0  0
 14 27  1  0  0  0  0
 15 16  1  0  0  0  0
 16 28  1  0  0  0  0
 16 29  1  0  0  0  0
 16 30  1  0  0  0  0
 17 31  1  0  0  0  0
 17 32  1  0  0  0  0
 17 33  1  0  0  0  0
M  END
> <PUBCHEM_COMPOUND_CID>
71358229

> <PUBCHEM_CONFORMER_RMSD>
0.6

> <PUBCHEM_CONFORMER_DIVERSEORDER>
1
65
70
74
38
77
57
7
75
68
41
62
72
22
67
29
79
42
16
71
12
73
69
63
64
58
30
13
61
51
43
66
59
33
24
10
52
50
60
15
76
28
11
37
8
9
78
36
32
54
5
48
23
46
40
49
53
19
55
14
34
20
56
2
25
17
39
47
3
44
35
4
26
45
27
6
31
21
18

> <PUBCHEM_MMFF94_PARTIAL_CHARGES>
21
1 -0.36
10 0.3
11 -0.15
12 -0.15
13 0.08
14 -0.15
15 0.57
16 0.06
17 0.28
2 -0.57
23 0.06
24 0.15
25 0.15
26 0.37
27 0.15
3 -0.63
4 -0.73
5 0.2
7 -0.14
8 0.18
9 0.33

> <PUBCHEM_EFFECTIVE_ROTOR_COUNT>
5.2

> <PUBCHEM_PHARMACOPHORE_FEATURES>
6
1 1 acceptor
1 2 acceptor
1 3 acceptor
1 4 donor
5 3 5 7 8 9 rings
6 7 8 11 12 13 14 rings

> <PUBCHEM_HEAVY_ATOM_COUNT>
17

> <PUBCHEM_ATOM_DEF_STEREO_COUNT>
0

> <PUBCHEM_ATOM_UDEF_STEREO_COUNT>
1

> <PUBCHEM_BOND_DEF_STEREO_COUNT>
0

> <PUBCHEM_BOND_UDEF_STEREO_COUNT>
0

> <PUBCHEM_ISOTOPIC_ATOM_COUNT>
0

> <PUBCHEM_COMPONENT_COUNT>
1

> <PUBCHEM_CACTVS_TAUTO_COUNT>
4

> <PUBCHEM_CONFORMER_ID>
0440D71500000001

> <PUBCHEM_MMFF94_ENERGY>
46.7391

> <PUBCHEM_FEATURE_SELFOVERLAP>
30.544

> <PUBCHEM_SHAPE_FINGERPRINT>
11552529 35 17914901078840958739
12032990 46 18410292480242052644
12107183 9 18055084155689987577
12506688 2 18410573963692458419
12553582 1 18342730797972086406
12596602 18 16988282092027464235
12616999 72 18187089481363446692
13140716 1 17982158221932897736
13296908 3 18410567353869879709
13533116 47 18271242837584653267
13544653 18 18408044004986073775
14251705 54 18338796702238902094
14252887 29 18411980273629954896
14790565 3 17905895025931159196
14863182 85 18409737291880013494
15375462 189 18202560708971499797
15422964 175 18409722933213622372
16945 1 18341321241656661460
17834074 16 18334294301170930283
20281475 54 18338800017874429260
20291156 8 18341047415346454278
20645477 70 18336531794664882711
20871998 22 18411981325738848932
21713013 43 17822291228139474191
221490 88 18336266747684754338
2255824 54 18194681694588751852
23402539 116 16443334365178323716
23557571 272 17531513331028534725
23559900 14 18193264205531404872
2871803 45 18040425608154556075
3323516 105 18334013891050736051
33824 294 18410009983332105594
4028521 119 11239733950461871043
5104073 3 18339637845919528696
5352402 22 18262249901525802123
9709674 26 18333169483596041299

> <PUBCHEM_SHAPE_MULTIPOLES>
328.15
8.43
2.96
0.91
8.37
1.22
0.03
5.05
1.08
-2.5
0.11
1
0.09
0.61

> <PUBCHEM_SHAPE_SELFOVERLAP>
690.761

> <PUBCHEM_SHAPE_VOLUME>
187.3

> <PUBCHEM_COORDINATE_TYPE>
2
5
10

$$$$
