54676011
  -OEChem-09252020573D

 54 57  0     1  0  0  0  0  0999 V2000
    2.3894   -0.3513    2.3371 O   0  0  0  0  0  0  0  0  0  0  0  0
    0.0489   -0.5608   -1.5062 O   0  0  0  0  0  0  0  0  0  0  0  0
    1.2460    2.2468    1.3832 O   0  0  0  0  0  0  0  0  0  0  0  0
   -0.0604    0.1512    3.1916 O   0  0  0  0  0  0  0  0  0  0  0  0
    3.5842    0.2213   -2.2519 O   0  0  0  0  0  0  0  0  0  0  0  0
   -2.1066    1.6111    1.8318 O   0  0  0  0  0  0  0  0  0  0  0  0
    3.6868    3.0848   -1.3647 O   0  0  0  0  0  0  0  0  0  0  0  0
   -4.3530    2.3037    0.7162 O   0  0  0  0  0  0  0  0  0  0  0  0
    4.0161   -1.5300    0.1826 N   0  0  0  0  0  0  0  0  0  0  0  0
    1.3865    3.2673   -1.4489 N   0  0  0  0  0  0  0  0  0  0  0  0
    1.5272   -1.3676    0.3201 C   0  0  1  0  0  0  0  0  0  0  0  0
    1.4306   -0.1631    1.2895 C   0  0  1  0  0  0  0  0  0  0  0  0
    0.2465   -1.5932   -0.5435 C   0  0  1  0  0  0  0  0  0  0  0  0
   -1.0047   -1.6913    0.3550 C   0  0  1  0  0  0  0  0  0  0  0  0
    2.7854   -1.2691   -0.5638 C   0  0  1  0  0  0  0  0  0  0  0  0
   -1.1213   -0.4333    1.1586 C   0  0  0  0  0  0  0  0  0  0  0  0
    0.0694   -0.1342    2.0030 C   0  0  0  0  0  0  0  0  0  0  0  0
    1.7138    1.1765    0.6379 C   0  0  0  0  0  0  0  0  0  0  0  0
    2.9470    0.0989   -1.2038 C   0  0  0  0  0  0  0  0  0  0  0  0
   -2.2663   -2.0488   -0.4123 C   0  0  0  0  0  0  0  0  0  0  0  0
    2.3760    1.3103   -0.5297 C   0  0  0  0  0  0  0  0  0  0  0  0
   -2.1353    0.4411    1.0963 C   0  0  0  0  0  0  0  0  0  0  0  0
   -3.2979   -0.9911   -0.6115 C   0  0  0  0  0  0  0  0  0  0  0  0
   -3.2563    0.2015    0.1551 C   0  0  0  0  0  0  0  0  0  0  0  0
    5.1795   -1.0661   -0.5722 C   0  0  0  0  0  0  0  0  0  0  0  0
    4.1378   -2.9557    0.4848 C   0  0  0  0  0  0  0  0  0  0  0  0
   -2.4508   -3.3269   -0.7934 C   0  0  0  0  0  0  0  0  0  0  0  0
    2.5672    2.6333   -1.1517 C   0  0  0  0  0  0  0  0  0  0  0  0
   -4.3336   -1.1542   -1.5549 C   0  0  0  0  0  0  0  0  0  0  0  0
   -4.2947    1.1415   -0.0014 C   0  0  0  0  0  0  0  0  0  0  0  0
   -5.3348   -0.1967   -1.7093 C   0  0  0  0  0  0  0  0  0  0  0  0
   -5.3225    0.9442   -0.9236 C   0  0  0  0  0  0  0  0  0  0  0  0
    1.5933   -2.2705    0.9405 H   0  0  0  0  0  0  0  0  0  0  0  0
    0.3778   -2.5291   -1.1020 H   0  0  0  0  0  0  0  0  0  0  0  0
   -0.8354   -2.5041    1.0791 H   0  0  0  0  0  0  0  0  0  0  0  0
    2.6881   -1.9825   -1.3955 H   0  0  0  0  0  0  0  0  0  0  0  0
    2.4021    0.4499    2.8889 H   0  0  0  0  0  0  0  0  0  0  0  0
   -0.6565   -0.8456   -2.1111 H   0  0  0  0  0  0  0  0  0  0  0  0
    3.3486   -3.3113    1.1524 H   0  0  0  0  0  0  0  0  0  0  0  0
    5.2271   -1.4719   -1.5898 H   0  0  0  0  0  0  0  0  0  0  0  0
    5.2863    0.0242   -0.5708 H   0  0  0  0  0  0  0  0  0  0  0  0
    6.0955   -1.4052   -0.0695 H   0  0  0  0  0  0  0  0  0  0  0  0
    4.1336   -3.5740   -0.4205 H   0  0  0  0  0  0  0  0  0  0  0  0
    5.0756   -3.1519    1.0183 H   0  0  0  0  0  0  0  0  0  0  0  0
   -1.6906   -4.0775   -0.5954 H   0  0  0  0  0  0  0  0  0  0  0  0
   -3.3445   -3.6848   -1.2900 H   0  0  0  0  0  0  0  0  0  0  0  0
    1.4812    3.0743    0.9322 H   0  0  0  0  0  0  0  0  0  0  0  0
   -4.3854   -2.0303   -2.1962 H   0  0  0  0  0  0  0  0  0  0  0  0
   -1.3164    1.6395    2.3939 H   0  0  0  0  0  0  0  0  0  0  0  0
   -6.1247   -0.3490   -2.4388 H   0  0  0  0  0  0  0  0  0  0  0  0
   -6.1146    1.6780   -1.0476 H   0  0  0  0  0  0  0  0  0  0  0  0
    0.4774    2.8537   -1.2656 H   0  0  0  0  0  0  0  0  0  0  0  0
    1.3848    4.1865   -1.8787 H   0  0  0  0  0  0  0  0  0  0  0  0
   -5.1410    2.8121    0.4594 H   0  0  0  0  0  0  0  0  0  0  0  0
  1 12  1  0  0  0  0
  1 37  1  0  0  0  0
  2 13  1  0  0  0  0
  2 38  1  0  0  0  0
  3 18  1  0  0  0  0
  3 47  1  0  0  0  0
  4 17  2  0  0  0  0
  5 19  2  0  0  0  0
  6 22  1  0  0  0  0
  6 49  1  0  0  0  0
  7 28  2  0  0  0  0
  8 30  1  0  0  0  0
  8 54  1  0  0  0  0
  9 15  1  0  0  0  0
  9 25  1  0  0  0  0
  9 26  1  0  0  0  0
 10 28  1  0  0  0  0
 10 52  1  0  0  0  0
 10 53  1  0  0  0  0
 11 12  1  0  0  0  0
 11 13  1  0  0  0  0
 11 15  1  0  0  0  0
 11 33  1  0  0  0  0
 12 17  1  0  0  0  0
 12 18  1  0  0  0  0
 13 14  1  0  0  0  0
 13 34  1  0  0  0  0
 14 16  1  0  0  0  0
 14 20  1  0  0  0  0
 14 35  1  0  0  0  0
 15 19  1  0  0  0  0
 15 36  1  0  0  0  0
 16 17  1  0  0  0  0
 16 22  2  0  0  0  0
 18 21  2  0  0  0  0
 19 21  1  0  0  0  0
 20 23  1  0  0  0  0
 20 27  2  0  0  0  0
 21 28  1  0  0  0  0
 22 24  1  0  0  0  0
 23 24  2  0  0  0  0
 23 29  1  0  0  0  0
 24 30  1  0  0  0  0
 25 40  1  0  0  0  0
 25 41  1  0  0  0  0
 25 42  1  0  0  0  0
 26 39  1  0  0  0  0
 26 43  1  0  0  0  0
 26 44  1  0  0  0  0
 27 45  1  0  0  0  0
 27 46  1  0  0  0  0
 29 31  2  0  0  0  0
 29 48  1  0  0  0  0
 30 32  2  0  0  0  0
 31 32  1  0  0  0  0
 31 50  1  0  0  0  0
 32 51  1  0  0  0  0
M  END
> <PUBCHEM_COMPOUND_CID>
54676011

> <PUBCHEM_CONFORMER_RMSD>
0.8

> <PUBCHEM_CONFORMER_DIVERSEORDER>
1
27
23
10
14
9
4
32
12
16
28
21
30
31
13
7
26
34
5
6
37
15
20
3
25
18
8
2
11
24
38
29
17
36
19
35
22
33

> <PUBCHEM_MMFF94_PARTIAL_CHARGES>
43
1 -0.68
10 -0.8
12 0.48
13 0.28
14 0.28
15 0.33
16 -0.12
17 0.49
18 -0.06
19 0.49
2 -0.68
20 -0.17
21 0.03
22 0.05
23 0.03
24 0.03
25 0.27
26 0.27
27 -0.3
28 0.62
29 -0.15
3 -0.53
30 0.08
31 -0.15
32 -0.15
37 0.4
38 0.4
4 -0.57
45 0.15
46 0.15
47 0.45
48 0.15
49 0.45
5 -0.57
50 0.15
51 0.15
52 0.37
53 0.37
54 0.45
6 -0.53
7 -0.57
8 -0.53
9 -0.81

> <PUBCHEM_EFFECTIVE_ROTOR_COUNT>
2.4

> <PUBCHEM_PHARMACOPHORE_FEATURES>
17
1 1 acceptor
1 1 donor
1 10 donor
1 2 acceptor
1 2 donor
1 21 anion
1 3 donor
1 4 acceptor
1 5 acceptor
1 6 donor
1 7 acceptor
1 8 donor
1 9 cation
6 11 12 13 14 16 17 rings
6 11 12 15 18 19 21 rings
6 14 16 20 22 23 24 rings
6 23 24 29 30 31 32 rings

> <PUBCHEM_HEAVY_ATOM_COUNT>
32

> <PUBCHEM_ATOM_DEF_STEREO_COUNT>
0

> <PUBCHEM_ATOM_UDEF_STEREO_COUNT>
5

> <PUBCHEM_BOND_DEF_STEREO_COUNT>
0

> <PUBCHEM_BOND_UDEF_STEREO_COUNT>
0

> <PUBCHEM_ISOTOPIC_ATOM_COUNT>
0

> <PUBCHEM_COMPONENT_COUNT>
1

> <PUBCHEM_CACTVS_TAUTO_COUNT>
168

> <PUBCHEM_CONFORMER_ID>
03424A2B00000001

> <PUBCHEM_MMFF94_ENERGY>
111.1395

> <PUBCHEM_FEATURE_SELFOVERLAP>
86.409

> <PUBCHEM_SHAPE_FINGERPRINT>
10863032 1 18339927141867796958
11578080 2 18131059451270704984
11595378 159 8286203864035605583
11640471 11 17896023499051627811
12156800 1 17099709710122454112
12160290 23 16125882225387216555
12166972 35 18342734096264025415
12363563 72 16128660751505460779
12553582 1 16127551412950644951
12788726 201 17489046889323872561
12892183 10 10015592717941796263
13004483 165 18046619015631381546
13134695 92 18114188480291930374
13224815 77 17240474853803031287
13583140 156 17821734927244105787
13590594 115 18042685005596940532
15163728 17 17461738473622504148
17349148 13 17846500292213413146
18335252 114 18116137880333212613
20511986 3 18342165662386661238
20775438 99 16694371733923898255
21033648 29 16298107596769532021
21033650 10 17201946759079198872
21781051 124 18411696622054981755
22149856 69 18272652399028852419
22182313 1 17415550184857418155
22393880 68 18198637712098421452
22907989 373 17915477175488182913
23557571 272 15195289685667390171
23559900 14 18272358798024855163
3388396 114 18340488996964488821
340366 18 18410009927281389367
3737641 26 10229832532845107860
474 4 17968366948864479409
495365 180 15719932675984423187
5895379 119 18341894060801448208
633830 44 17022899077414204663
7399639 24 17248954446232071994
9709674 26 17773857861680549459
9981440 41 17685216471052344552

> <PUBCHEM_SHAPE_MULTIPOLES>
601.63
9.75
3.16
2.09
5.03
0.67
-0.89
-0.13
4.51
-1.61
0.93
-0.36
0.62
-1.75

> <PUBCHEM_SHAPE_SELFOVERLAP>
1336.741

> <PUBCHEM_SHAPE_VOLUME>
313.6

> <PUBCHEM_COORDINATE_TYPE>
2
5
10

$$$$
