4140
  -OEChem-09252020573D

 50 53  0     1  0  0  0  0  0999 V2000
   -2.3228    1.0717   -1.3327 O   0  0  0  0  0  0  0  0  0  0  0  0
   -5.3933    1.8520    1.7793 O   0  0  0  0  0  0  0  0  0  0  0  0
    0.0273   -2.3499    0.1842 N   0  0  1  0  0  0  0  0  0  0  0  0
    5.5661   -0.0447    0.2387 N   0  0  0  0  0  0  0  0  0  0  0  0
   -3.7892    0.0994    0.1916 N   0  0  0  0  0  0  0  0  0  0  0  0
    1.2052   -1.5279   -0.2129 C   0  0  1  0  0  0  0  0  0  0  0  0
    0.9802    0.0002   -0.0061 C   0  0  0  0  0  0  0  0  0  0  0  0
    2.4877   -2.0670    0.5231 C   0  0  0  0  0  0  0  0  0  0  0  0
   -1.4487   -0.3816    0.3468 C   0  0  1  0  0  0  0  0  0  0  0  0
   -1.2223   -1.7484   -0.3040 C   0  0  0  0  0  0  0  0  0  0  0  0
    3.6279   -1.1250    0.3678 C   0  0  0  0  0  0  0  0  0  0  0  0
    2.1593    0.8883   -0.1152 C   0  0  0  0  0  0  0  0  0  0  0  0
    3.3810    0.2324    0.0766 C   0  0  0  0  0  0  0  0  0  0  0  0
   -0.2359    0.4947    0.2841 C   0  0  0  0  0  0  0  0  0  0  0  0
    4.5918    0.9006    0.0014 C   0  0  0  0  0  0  0  0  0  0  0  0
    0.1234   -3.7300   -0.3026 C   0  0  0  0  0  0  0  0  0  0  0  0
   -2.5478    0.3415   -0.3710 C   0  0  0  0  0  0  0  0  0  0  0  0
    4.9911   -1.2767    0.4647 C   0  0  0  0  0  0  0  0  0  0  0  0
    2.2059    2.2606   -0.3892 C   0  0  0  0  0  0  0  0  0  0  0  0
    4.6560    2.2681   -0.2697 C   0  0  0  0  0  0  0  0  0  0  0  0
    3.4346    2.9325   -0.4631 C   0  0  0  0  0  0  0  0  0  0  0  0
   -5.0100    0.6957   -0.3004 C   0  0  1  0  0  0  0  0  0  0  0  0
   -6.2097   -0.2316   -0.0659 C   0  0  0  0  0  0  0  0  0  0  0  0
   -5.2300    2.0477    0.3790 C   0  0  0  0  0  0  0  0  0  0  0  0
   -6.0278   -1.6027   -0.7045 C   0  0  0  0  0  0  0  0  0  0  0  0
    1.3694   -1.6498   -1.2956 H   0  0  0  0  0  0  0  0  0  0  0  0
    2.7782   -3.0440    0.1210 H   0  0  0  0  0  0  0  0  0  0  0  0
    2.2804   -2.1922    1.5939 H   0  0  0  0  0  0  0  0  0  0  0  0
   -1.7111   -0.5070    1.4055 H   0  0  0  0  0  0  0  0  0  0  0  0
   -2.0757   -2.3898   -0.0463 H   0  0  0  0  0  0  0  0  0  0  0  0
   -1.2144   -1.6697   -1.4008 H   0  0  0  0  0  0  0  0  0  0  0  0
   -0.3714    1.5525    0.4961 H   0  0  0  0  0  0  0  0  0  0  0  0
   -0.7714   -4.2992   -0.0248 H   0  0  0  0  0  0  0  0  0  0  0  0
    0.9626   -4.2605    0.1568 H   0  0  0  0  0  0  0  0  0  0  0  0
    0.2321   -3.7765   -1.3920 H   0  0  0  0  0  0  0  0  0  0  0  0
    5.6088   -2.1383    0.6753 H   0  0  0  0  0  0  0  0  0  0  0  0
    1.2936    2.8261   -0.5598 H   0  0  0  0  0  0  0  0  0  0  0  0
    6.5599    0.1385    0.2505 H   0  0  0  0  0  0  0  0  0  0  0  0
    5.6007    2.7964   -0.3300 H   0  0  0  0  0  0  0  0  0  0  0  0
   -3.8498   -0.4833    1.0218 H   0  0  0  0  0  0  0  0  0  0  0  0
    3.4426    3.9986   -0.6795 H   0  0  0  0  0  0  0  0  0  0  0  0
   -4.8959    0.8671   -1.3779 H   0  0  0  0  0  0  0  0  0  0  0  0
   -6.3819   -0.3804    1.0071 H   0  0  0  0  0  0  0  0  0  0  0  0
   -7.1152    0.2335   -0.4740 H   0  0  0  0  0  0  0  0  0  0  0  0
   -4.3822    2.7231    0.2224 H   0  0  0  0  0  0  0  0  0  0  0  0
   -6.1314    2.5364   -0.0038 H   0  0  0  0  0  0  0  0  0  0  0  0
   -5.1979   -2.1534   -0.2512 H   0  0  0  0  0  0  0  0  0  0  0  0
   -5.8369   -1.5118   -1.7786 H   0  0  0  0  0  0  0  0  0  0  0  0
   -6.9348   -2.2013   -0.5719 H   0  0  0  0  0  0  0  0  0  0  0  0
   -4.5815    1.4317    2.1108 H   0  0  0  0  0  0  0  0  0  0  0  0
  1 17  2  0  0  0  0
  2 24  1  0  0  0  0
  2 50  1  0  0  0  0
  3  6  1  0  0  0  0
  3 10  1  0  0  0  0
  3 16  1  0  0  0  0
  4 15  1  0  0  0  0
  4 18  1  0  0  0  0
  4 38  1  0  0  0  0
  5 17  1  0  0  0  0
  5 22  1  0  0  0  0
  5 40  1  0  0  0  0
  6  7  1  0  0  0  0
  6  8  1  0  0  0  0
  6 26  1  0  0  0  0
  7 12  1  0  0  0  0
  7 14  2  0  0  0  0
  8 11  1  0  0  0  0
  8 27  1  0  0  0  0
  8 28  1  0  0  0  0
  9 10  1  0  0  0  0
  9 14  1  0  0  0  0
  9 17  1  0  0  0  0
  9 29  1  0  0  0  0
 10 30  1  0  0  0  0
 10 31  1  0  0  0  0
 11 13  1  0  0  0  0
 11 18  2  0  0  0  0
 12 13  2  0  0  0  0
 12 19  1  0  0  0  0
 13 15  1  0  0  0  0
 14 32  1  0  0  0  0
 15 20  2  0  0  0  0
 16 33  1  0  0  0  0
 16 34  1  0  0  0  0
 16 35  1  0  0  0  0
 18 36  1  0  0  0  0
 19 21  2  0  0  0  0
 19 37  1  0  0  0  0
 20 21  1  0  0  0  0
 20 39  1  0  0  0  0
 21 41  1  0  0  0  0
 22 23  1  0  0  0  0
 22 24  1  0  0  0  0
 22 42  1  0  0  0  0
 23 25  1  0  0  0  0
 23 43  1  0  0  0  0
 23 44  1  0  0  0  0
 24 45  1  0  0  0  0
 24 46  1  0  0  0  0
 25 47  1  0  0  0  0
 25 48  1  0  0  0  0
 25 49  1  0  0  0  0
M  END
> <PUBCHEM_COMPOUND_CID>
4140

> <PUBCHEM_CONFORMER_RMSD>
0.8

> <PUBCHEM_CONFORMER_DIVERSEORDER>
4
55
32
100
34
87
99
144
63
11
57
15
105
73
152
132
81
47
107
110
31
103
117
150
48
148
28
53
135
111
72
61
149
123
139
75
126
13
69
54
119
102
92
122
16
56
136
36
65
33
76
41
66
62
24
17
50
20
67
60
104
45
133
22
80
97
2
95
78
83
124
25
58
109
106
37
23
86
40
43
79
77
74
118
64
30
108
138
6
18
145
8
94
125
39
3
35
82
112
147
12
141
21
27
93
7
44
85
140
5
70
90
98
115
113
52
59
142
121
26
88
68
84
137
9
38
128
101
129
114
42
96
127
89
10
71
151
116
51
49
134
131
19
130
29
91
120
14
1
146
143
46

> <PUBCHEM_MMFF94_PARTIAL_CHARGES>
30
1 -0.57
10 0.27
11 -0.18
12 0.03
14 -0.29
15 -0.15
16 0.27
17 0.57
18 -0.3
19 -0.15
2 -0.68
20 -0.15
21 -0.15
22 0.3
24 0.28
3 -0.81
32 0.15
36 0.15
37 0.15
38 0.27
39 0.15
4 0.03
40 0.37
41 0.15
5 -0.73
50 0.4
6 0.41
7 -0.17
8 0.18
9 0.2

> <PUBCHEM_EFFECTIVE_ROTOR_COUNT>
5.8

> <PUBCHEM_PHARMACOPHORE_FEATURES>
12
1 1 acceptor
1 2 acceptor
1 2 donor
1 25 hydrophobe
1 3 cation
1 4 cation
1 4 donor
1 5 donor
5 4 11 13 15 18 rings
6 12 13 15 19 20 21 rings
6 3 6 7 9 10 14 rings
6 6 7 8 11 12 13 rings

> <PUBCHEM_HEAVY_ATOM_COUNT>
25

> <PUBCHEM_ATOM_DEF_STEREO_COUNT>
0

> <PUBCHEM_ATOM_UDEF_STEREO_COUNT>
3

> <PUBCHEM_BOND_DEF_STEREO_COUNT>
0

> <PUBCHEM_BOND_UDEF_STEREO_COUNT>
0

> <PUBCHEM_ISOTOPIC_ATOM_COUNT>
0

> <PUBCHEM_COMPONENT_COUNT>
1

> <PUBCHEM_CACTVS_TAUTO_COUNT>
2

> <PUBCHEM_CONFORMER_ID>
0000102C00000004

> <PUBCHEM_MMFF94_ENERGY>
53.0301

> <PUBCHEM_FEATURE_SELFOVERLAP>
61.143

> <PUBCHEM_SHAPE_FINGERPRINT>
10411042 1 17760928438004063522
10595046 47 18412824720456896717
10763959 59 17603297155118760277
10967382 1 18408600341206895246
1100329 8 18410006663617934346
11796584 16 13614515268699400757
12107183 9 17764310544576347521
12166972 35 18343581845657451352
12236239 1 18060699468134844529
12403259 415 17895185584764740780
12788726 201 17775016677837389248
13140716 1 18263636428917454506
13631057 29 18201714107558825583
13782708 43 16733823073704777202
13785724 45 17835240048027023058
14251764 18 18261387867361514584
14251764 75 18265065801917629228
14464042 87 18060142007271493024
14528608 73 18411136952685642493
14790565 3 18411983567980633893
15196674 1 18337107968569413422
15475509 8 18056216695584497630
17844677 252 18336550430533501333
18681886 176 18342168969136835834
19377110 9 18271816726787746219
20028762 73 18343861095851918494
21033648 144 18186794820636515069
21033648 29 16733252496216102397
21033650 10 16987186909901081776
21197605 99 18264775526853453587
21267235 1 18337111173121437906
21307412 95 17915206588760627158
21315763 129 18335980878993605157
21709351 56 18410004404332949757
23558518 356 17754454878838038474
23559900 14 18272086158919108952
23569917 315 18342179968206293718
335352 9 18409167727977610750
350125 39 18409164449989161847
3680242 22 18335699382573629002
4073 2 17894917381331783899
4325135 7 18342453755913243679
474 4 18411702054217361939
5104073 3 18261389000942646704
513532 50 18131080320695715772
8272917 22 18341052904462462142
9996256 80 18411979187303850759
9999458 23 18113336419042003278

> <PUBCHEM_SHAPE_MULTIPOLES>
487.81
14.04
3.22
0.85
15.04
0.94
0.1
-4.87
1
-1.34
-0.19
0.71
-0.22
-1.57

> <PUBCHEM_SHAPE_SELFOVERLAP>
1059.166

> <PUBCHEM_SHAPE_VOLUME>
266.9

> <PUBCHEM_COORDINATE_TYPE>
2
5
10

$$$$
