26388
  -OEChem-09252020583D

 57 60  0     0  0  0  0  0  0999 V2000
    3.1120    0.9639   -2.0490 S   0  0  0  0  0  0  0  0  0  0  0  0
   -1.9612    3.2800    0.9199 S   0  0  0  0  0  0  0  0  0  0  0  0
   -5.5156   -0.9103    0.6760 O   0  0  0  0  0  0  0  0  0  0  0  0
   -1.8541    2.9707    2.3385 O   0  0  0  0  0  0  0  0  0  0  0  0
   -2.1511    4.6594    0.4930 O   0  0  0  0  0  0  0  0  0  0  0  0
   -0.8974   -2.0236   -0.1201 N   0  0  0  0  0  0  0  0  0  0  0  0
    1.9800   -0.0997    0.6438 N   0  0  0  0  0  0  0  0  0  0  0  0
   -5.8114   -1.4289   -1.5461 N   0  0  0  0  0  0  0  0  0  0  0  0
   -3.8016   -2.1488   -0.4348 C   0  0  0  0  0  0  0  0  0  0  0  0
   -3.1311   -2.1318    0.9378 C   0  0  0  0  0  0  0  0  0  0  0  0
   -2.8967   -1.4935   -1.4764 C   0  0  0  0  0  0  0  0  0  0  0  0
   -1.7220   -2.7237    0.8745 C   0  0  0  0  0  0  0  0  0  0  0  0
   -1.4959   -2.1080   -1.4594 C   0  0  0  0  0  0  0  0  0  0  0  0
    0.4609   -2.5664   -0.1317 C   0  0  0  0  0  0  0  0  0  0  0  0
    1.1718   -2.3598    1.2094 C   0  0  0  0  0  0  0  0  0  0  0  0
    1.2785   -0.9016    1.6547 C   0  0  0  0  0  0  0  0  0  0  0  0
   -5.1129   -1.4297   -0.3619 C   0  0  0  0  0  0  0  0  0  0  0  0
    1.2734    0.9850    0.0655 C   0  0  0  0  0  0  0  0  0  0  0  0
    3.3321   -0.4289    0.3725 C   0  0  0  0  0  0  0  0  0  0  0  0
    1.7028    1.5698   -1.1423 C   0  0  0  0  0  0  0  0  0  0  0  0
    3.9654    0.0157   -0.8051 C   0  0  0  0  0  0  0  0  0  0  0  0
    0.1370    1.5516    0.6833 C   0  0  0  0  0  0  0  0  0  0  0  0
   -0.5517    2.6295    0.1201 C   0  0  0  0  0  0  0  0  0  0  0  0
    4.1147   -1.1802    1.2764 C   0  0  0  0  0  0  0  0  0  0  0  0
    1.0032    2.6510   -1.7073 C   0  0  0  0  0  0  0  0  0  0  0  0
   -0.1199    3.1778   -1.0780 C   0  0  0  0  0  0  0  0  0  0  0  0
    5.3090   -0.3070   -1.0657 C   0  0  0  0  0  0  0  0  0  0  0  0
    5.4514   -1.4937    1.0148 C   0  0  0  0  0  0  0  0  0  0  0  0
    6.0482   -1.0594   -0.1588 C   0  0  0  0  0  0  0  0  0  0  0  0
   -3.3178    2.3407    0.2564 C   0  0  0  0  0  0  0  0  0  0  0  0
   -3.9987   -3.1894   -0.7245 H   0  0  0  0  0  0  0  0  0  0  0  0
   -3.0656   -1.1058    1.3251 H   0  0  0  0  0  0  0  0  0  0  0  0
   -3.7319   -2.7000    1.6591 H   0  0  0  0  0  0  0  0  0  0  0  0
   -3.3117   -1.6056   -2.4848 H   0  0  0  0  0  0  0  0  0  0  0  0
   -2.8247   -0.4135   -1.2924 H   0  0  0  0  0  0  0  0  0  0  0  0
   -1.7827   -3.7967    0.6498 H   0  0  0  0  0  0  0  0  0  0  0  0
   -1.3153   -2.6228    1.8847 H   0  0  0  0  0  0  0  0  0  0  0  0
   -0.8759   -1.5581   -2.1780 H   0  0  0  0  0  0  0  0  0  0  0  0
   -1.5458   -3.1501   -1.8014 H   0  0  0  0  0  0  0  0  0  0  0  0
    1.0485   -2.0862   -0.9235 H   0  0  0  0  0  0  0  0  0  0  0  0
    0.4492   -3.6393   -0.3664 H   0  0  0  0  0  0  0  0  0  0  0  0
    2.1590   -2.8229    1.1141 H   0  0  0  0  0  0  0  0  0  0  0  0
    0.6968   -2.9421    2.0069 H   0  0  0  0  0  0  0  0  0  0  0  0
    0.2542   -0.5941    1.8647 H   0  0  0  0  0  0  0  0  0  0  0  0
    1.7795   -0.8238    2.6272 H   0  0  0  0  0  0  0  0  0  0  0  0
   -5.4815   -1.9029   -2.3803 H   0  0  0  0  0  0  0  0  0  0  0  0
   -6.7142   -0.9710   -1.6151 H   0  0  0  0  0  0  0  0  0  0  0  0
   -0.2138    1.2056    1.6486 H   0  0  0  0  0  0  0  0  0  0  0  0
    3.7218   -1.5260    2.2284 H   0  0  0  0  0  0  0  0  0  0  0  0
    1.3265    3.0941   -2.6472 H   0  0  0  0  0  0  0  0  0  0  0  0
   -0.6419    4.0089   -1.5428 H   0  0  0  0  0  0  0  0  0  0  0  0
    5.7954    0.0263   -1.9803 H   0  0  0  0  0  0  0  0  0  0  0  0
    6.0231   -2.0722    1.7346 H   0  0  0  0  0  0  0  0  0  0  0  0
    7.0860   -1.3008   -0.3671 H   0  0  0  0  0  0  0  0  0  0  0  0
   -3.3517    2.4778   -0.8259 H   0  0  0  0  0  0  0  0  0  0  0  0
   -4.2404    2.7112    0.7085 H   0  0  0  0  0  0  0  0  0  0  0  0
   -3.1763    1.2897    0.5120 H   0  0  0  0  0  0  0  0  0  0  0  0
  1 20  1  0  0  0  0
  1 21  1  0  0  0  0
  2  4  2  0  0  0  0
  2  5  2  0  0  0  0
  2 23  1  0  0  0  0
  2 30  1  0  0  0  0
  3 17  2  0  0  0  0
  6 12  1  0  0  0  0
  6 13  1  0  0  0  0
  6 14  1  0  0  0  0
  7 16  1  0  0  0  0
  7 18  1  0  0  0  0
  7 19  1  0  0  0  0
  8 17  1  0  0  0  0
  8 46  1  0  0  0  0
  8 47  1  0  0  0  0
  9 10  1  0  0  0  0
  9 11  1  0  0  0  0
  9 17  1  0  0  0  0
  9 31  1  0  0  0  0
 10 12  1  0  0  0  0
 10 32  1  0  0  0  0
 10 33  1  0  0  0  0
 11 13  1  0  0  0  0
 11 34  1  0  0  0  0
 11 35  1  0  0  0  0
 12 36  1  0  0  0  0
 12 37  1  0  0  0  0
 13 38  1  0  0  0  0
 13 39  1  0  0  0  0
 14 15  1  0  0  0  0
 14 40  1  0  0  0  0
 14 41  1  0  0  0  0
 15 16  1  0  0  0  0
 15 42  1  0  0  0  0
 15 43  1  0  0  0  0
 16 44  1  0  0  0  0
 16 45  1  0  0  0  0
 18 20  2  0  0  0  0
 18 22  1  0  0  0  0
 19 21  1  0  0  0  0
 19 24  2  0  0  0  0
 20 25  1  0  0  0  0
 21 27  2  0  0  0  0
 22 23  2  0  0  0  0
 22 48  1  0  0  0  0
 23 26  1  0  0  0  0
 24 28  1  0  0  0  0
 24 49  1  0  0  0  0
 25 26  2  0  0  0  0
 25 50  1  0  0  0  0
 26 51  1  0  0  0  0
 27 29  1  0  0  0  0
 27 52  1  0  0  0  0
 28 29  2  0  0  0  0
 28 53  1  0  0  0  0
 29 54  1  0  0  0  0
 30 55  1  0  0  0  0
 30 56  1  0  0  0  0
 30 57  1  0  0  0  0
M  END
> <PUBCHEM_COMPOUND_CID>
26388

> <PUBCHEM_CONFORMER_RMSD>
1

> <PUBCHEM_CONFORMER_DIVERSEORDER>
2
53
71
60
84
20
79
61
70
28
74
9
8
22
63
56
44
30
48
62
11
80
27
67
59
78
46
82
83
1
4
18
50
41
26
16
38
13
69
76
23
65
31
57
40
75
33
17
54
3
37
21
72
15
32
64
24
73
5
58
19
66
47
6
29
43
35
49
77
55
34
52
14
10
68
25
45
85
81
7
51
36
12
42
39

> <PUBCHEM_MMFF94_PARTIAL_CHARGES>
36
1 -0.2
12 0.27
13 0.27
14 0.27
16 0.37
17 0.57
18 0.1
19 0.1
2 1.2
20 0.1
21 0.1
22 -0.15
23 -0.01
24 -0.15
25 -0.15
26 -0.15
27 -0.15
28 -0.15
29 -0.15
3 -0.57
30 0.11
4 -0.65
46 0.37
47 0.37
48 0.15
49 0.15
5 -0.65
50 0.15
51 0.15
52 0.15
53 0.15
54 0.15
6 -0.81
7 -0.57
8 -0.8
9 0.06

> <PUBCHEM_EFFECTIVE_ROTOR_COUNT>
7.6

> <PUBCHEM_PHARMACOPHORE_FEATURES>
10
1 3 acceptor
1 4 acceptor
1 5 acceptor
1 6 cation
1 7 cation
1 8 donor
6 1 7 18 19 20 21 rings
6 18 20 22 23 25 26 rings
6 19 21 24 27 28 29 rings
6 6 9 10 11 12 13 rings

> <PUBCHEM_HEAVY_ATOM_COUNT>
30

> <PUBCHEM_ATOM_DEF_STEREO_COUNT>
0

> <PUBCHEM_ATOM_UDEF_STEREO_COUNT>
0

> <PUBCHEM_BOND_DEF_STEREO_COUNT>
0

> <PUBCHEM_BOND_UDEF_STEREO_COUNT>
0

> <PUBCHEM_ISOTOPIC_ATOM_COUNT>
0

> <PUBCHEM_COMPONENT_COUNT>
1

> <PUBCHEM_CACTVS_TAUTO_COUNT>
2

> <PUBCHEM_CONFORMER_ID>
0000671400000002

> <PUBCHEM_MMFF94_ENERGY>
78.469

> <PUBCHEM_FEATURE_SELFOVERLAP>
50.794

> <PUBCHEM_SHAPE_FINGERPRINT>
10190206 1 18043839618113862564
104564 63 18411979135458534810
11135609 187 17389960177472148372
11479125 193 15215869408445735654
11513181 2 17771899433924214599
11578080 2 18201714064529830800
11828532 37 16414346957516591279
12035759 4 18186802478637101830
12156800 1 18124342439703561070
12166972 35 18114742763096722911
12293681 4 18335710471963487531
12422481 6 18056780757143703267
12788726 201 18340222876579211228
13004483 165 18341043112258683212
14068700 675 18412819205376237585
14294032 229 18198636423608739529
14464042 87 18407477765140730502
14955137 171 18268147733273782611
15276724 80 18413671327309568836
15297060 5 17916022361504237451
15420108 30 17905331719168164552
17138139 8 17622678160967143077
20775438 99 16902397237528438983
21285901 2 17846512425617305438
23536364 44 18334566924077522415
244849 19 17202751593845062082
24893992 56 18408885171159998543
3027735 51 18342460287920580418
3052486 1 18337684013693277094
340366 18 18056196006015824791
35225 105 17843946071183928413
38695281 34 17760654663871565752
469060 322 17604425198377345604
46939830 39 17530962488577189973
5080951 261 18124003799477173734
57527295 17 17905616853472550182
58260988 647 13624906659105280952

> <PUBCHEM_SHAPE_MULTIPOLES>
592.53
10.83
4.76
1.77
1.95
4.31
-0.12
-7.13
-1.45
-4.68
0.81
0.08
0.38
-2.55

> <PUBCHEM_SHAPE_SELFOVERLAP>
1240.603

> <PUBCHEM_SHAPE_VOLUME>
335.1

> <PUBCHEM_COORDINATE_TYPE>
2
5
10

$$$$
