4178
  -OEChem-09252020583D

 30 30  0     1  0  0  0  0  0999 V2000
   -0.7219   -0.1308    0.5860 O   0  0  0  0  0  0  0  0  0  0  0  0
   -3.9941   -0.5398   -1.0632 N   0  0  0  0  0  0  0  0  0  0  0  0
   -3.0664   -0.3320    0.0475 C   0  0  1  0  0  0  0  0  0  0  0  0
   -1.6363   -0.2880   -0.4921 C   0  0  0  0  0  0  0  0  0  0  0  0
    0.6051   -0.0319    0.2602 C   0  0  0  0  0  0  0  0  0  0  0  0
    1.3845   -1.1821    0.1777 C   0  0  0  0  0  0  0  0  0  0  0  0
    1.1652    1.2184    0.0147 C   0  0  0  0  0  0  0  0  0  0  0  0
   -3.4287    0.9476    0.8017 C   0  0  0  0  0  0  0  0  0  0  0  0
    2.7358   -1.0810   -0.1532 C   0  0  0  0  0  0  0  0  0  0  0  0
    2.5164    1.3194   -0.3166 C   0  0  0  0  0  0  0  0  0  0  0  0
    3.3018    0.1697   -0.4005 C   0  0  0  0  0  0  0  0  0  0  0  0
    0.7973   -2.5303    0.4380 C   0  0  0  0  0  0  0  0  0  0  0  0
    0.3413    2.4609    0.0999 C   0  0  0  0  0  0  0  0  0  0  0  0
   -3.1561   -1.1727    0.7456 H   0  0  0  0  0  0  0  0  0  0  0  0
   -1.4138   -1.2197   -1.0268 H   0  0  0  0  0  0  0  0  0  0  0  0
   -1.5217    0.5415   -1.2014 H   0  0  0  0  0  0  0  0  0  0  0  0
   -4.4614    0.9085    1.1662 H   0  0  0  0  0  0  0  0  0  0  0  0
   -3.3293    1.8319    0.1621 H   0  0  0  0  0  0  0  0  0  0  0  0
   -2.7801    1.0879    1.6728 H   0  0  0  0  0  0  0  0  0  0  0  0
    3.3598   -1.9679   -0.2247 H   0  0  0  0  0  0  0  0  0  0  0  0
    2.9711    2.2865   -0.5140 H   0  0  0  0  0  0  0  0  0  0  0  0
   -3.9375    0.2443   -1.7124 H   0  0  0  0  0  0  0  0  0  0  0  0
   -4.9516   -0.5462   -0.7136 H   0  0  0  0  0  0  0  0  0  0  0  0
    4.3537    0.2482   -0.6594 H   0  0  0  0  0  0  0  0  0  0  0  0
    0.0971   -2.5031    1.2795 H   0  0  0  0  0  0  0  0  0  0  0  0
    0.2753   -2.8949   -0.4520 H   0  0  0  0  0  0  0  0  0  0  0  0
    1.5729   -3.2587    0.6995 H   0  0  0  0  0  0  0  0  0  0  0  0
   -0.2531    2.5862   -0.8103 H   0  0  0  0  0  0  0  0  0  0  0  0
   -0.3284    2.4326    0.9658 H   0  0  0  0  0  0  0  0  0  0  0  0
    0.9703    3.3501    0.2188 H   0  0  0  0  0  0  0  0  0  0  0  0
  1  4  1  0  0  0  0
  1  5  1  0  0  0  0
  2  3  1  0  0  0  0
  2 22  1  0  0  0  0
  2 23  1  0  0  0  0
  3  4  1  0  0  0  0
  3  8  1  0  0  0  0
  3 14  1  0  0  0  0
  4 15  1  0  0  0  0
  4 16  1  0  0  0  0
  5  6  2  0  0  0  0
  5  7  1  0  0  0  0
  6  9  1  0  0  0  0
  6 12  1  0  0  0  0
  7 10  2  0  0  0  0
  7 13  1  0  0  0  0
  8 17  1  0  0  0  0
  8 18  1  0  0  0  0
  8 19  1  0  0  0  0
  9 11  2  0  0  0  0
  9 20  1  0  0  0  0
 10 11  1  0  0  0  0
 10 21  1  0  0  0  0
 11 24  1  0  0  0  0
 12 25  1  0  0  0  0
 12 26  1  0  0  0  0
 12 27  1  0  0  0  0
 13 28  1  0  0  0  0
 13 29  1  0  0  0  0
 13 30  1  0  0  0  0
M  END
> <PUBCHEM_COMPOUND_CID>
4178

> <PUBCHEM_CONFORMER_RMSD>
0.6

> <PUBCHEM_CONFORMER_DIVERSEORDER>
1
6
4
5
3
2

> <PUBCHEM_MMFF94_PARTIAL_CHARGES>
17
1 -0.36
10 -0.15
11 -0.15
12 0.14
13 0.14
2 -0.99
20 0.15
21 0.15
22 0.36
23 0.36
24 0.15
3 0.27
4 0.28
5 0.08
6 -0.14
7 -0.14
9 -0.15

> <PUBCHEM_EFFECTIVE_ROTOR_COUNT>
3

> <PUBCHEM_PHARMACOPHORE_FEATURES>
4
1 1 acceptor
1 2 cation
1 2 donor
6 5 6 7 9 10 11 rings

> <PUBCHEM_HEAVY_ATOM_COUNT>
13

> <PUBCHEM_ATOM_DEF_STEREO_COUNT>
0

> <PUBCHEM_ATOM_UDEF_STEREO_COUNT>
1

> <PUBCHEM_BOND_DEF_STEREO_COUNT>
0

> <PUBCHEM_BOND_UDEF_STEREO_COUNT>
0

> <PUBCHEM_ISOTOPIC_ATOM_COUNT>
0

> <PUBCHEM_COMPONENT_COUNT>
1

> <PUBCHEM_CACTVS_TAUTO_COUNT>
1

> <PUBCHEM_CONFORMER_ID>
0000105200000001

> <PUBCHEM_MMFF94_ENERGY>
32.4562

> <PUBCHEM_FEATURE_SELFOVERLAP>
20.297

> <PUBCHEM_SHAPE_FINGERPRINT>
10219947 1 18335421274650616422
10980938 120 18409448068064739335
11471102 20 18407758127330346077
12654215 9 18187917361594251180
12932764 1 17632292393724242857
14144814 61 18413108359833257105
14251717 144 18409725179497329591
14576447 43 18272080647431712999
14911166 2 18337402616674785142
14993402 34 18272934937790622678
15442244 35 18051697633500010681
15757776 16 18411976949283134510
16945 1 18333453118956781658
17844478 74 17676778591087011981
18186145 218 18335145292784181174
193761 8 17760650270119365904
19422 9 18202567263276235951
20201158 50 18260267430014879459
20606313 2 18408881858336668020
20645477 70 18337666426245798631
21634736 98 17912633893894945319
23402539 116 18342736300209911534
23402655 69 18411696565539431525
23598291 2 18201722799976104975
25 1 18333455343417694042
2748010 2 17978809122699806252
3060560 45 18337381733858360127
528886 8 18410012160811809970
63268167 104 18411985775330203569
77492 1 17989495108242258691
7832392 63 18270121206363769033

> <PUBCHEM_SHAPE_MULTIPOLES>
256.68
5.84
2.17
0.81
4.92
0.03
0.04
-0.05
0.94
-1.02
-0.27
0.43
-0.04
-0.51

> <PUBCHEM_SHAPE_SELFOVERLAP>
518.932

> <PUBCHEM_SHAPE_VOLUME>
152.5

> <PUBCHEM_COORDINATE_TYPE>
2
5
10

$$$$
