4474936
  -OEChem-09252020583D

 70 72  0     1  0  0  0  0  0999 V2000
   -1.9996   -2.7263   -0.5259 O   0  0  0  0  0  0  0  0  0  0  0  0
    1.9987   -4.2710   -1.8100 O   0  0  0  0  0  0  0  0  0  0  0  0
    5.7357    1.1490   -1.0985 O   0  0  0  0  0  0  0  0  0  0  0  0
    5.0710    1.4375    1.5840 O   0  0  0  0  0  0  0  0  0  0  0  0
    1.4996   -4.0310    0.4011 O   0  0  0  0  0  0  0  0  0  0  0  0
   -4.7401    0.7367   -0.9523 O   0  0  0  0  0  0  0  0  0  0  0  0
   -5.7534   -0.6339    0.5995 O   0  0  0  0  0  0  0  0  0  0  0  0
    0.0846   -1.8141   -0.0158 N   0  0  0  0  0  0  0  0  0  0  0  0
   -3.2006   -1.3843    1.4029 N   0  0  0  0  0  0  0  0  0  0  0  0
    0.7194   -2.3929   -1.2017 C   0  0  1  0  0  0  0  0  0  0  0  0
    1.6423   -1.4094   -1.9147 C   0  0  0  0  0  0  0  0  0  0  0  0
    0.9430   -1.0968    0.9414 C   0  0  0  0  0  0  0  0  0  0  0  0
    2.5574   -0.6733   -0.9749 C   0  0  0  0  0  0  0  0  0  0  0  0
    2.2113   -0.5154    0.3747 C   0  0  0  0  0  0  0  0  0  0  0  0
   -1.7913   -1.6796    1.5925 C   0  0  2  0  0  0  0  0  0  0  0  0
   -1.2551   -2.1271    0.2541 C   0  0  0  0  0  0  0  0  0  0  0  0
   -3.3851   -0.0718    0.7948 C   0  0  2  0  0  0  0  0  0  0  0  0
    3.7410   -0.0992   -1.4605 C   0  0  0  0  0  0  0  0  0  0  0  0
    1.4323   -3.6375   -0.7539 C   0  0  0  0  0  0  0  0  0  0  0  0
    3.0719    0.1955    1.2250 C   0  0  0  0  0  0  0  0  0  0  0  0
   -3.2699    1.0573    1.8315 C   0  0  0  0  0  0  0  0  0  0  0  0
   -1.5963   -2.7762    2.6193 C   0  0  0  0  0  0  0  0  0  0  0  0
    4.5876    0.6061   -0.6063 C   0  0  0  0  0  0  0  0  0  0  0  0
    4.2542    0.7514    0.7372 C   0  0  0  0  0  0  0  0  0  0  0  0
   -3.0407    2.4597    1.2505 C   0  0  0  0  0  0  0  0  0  0  0  0
   -4.7689   -0.0487    0.1670 C   0  0  0  0  0  0  0  0  0  0  0  0
   -1.7467    2.5983    0.4887 C   0  0  0  0  0  0  0  0  0  0  0  0
   -0.5849    2.9910    1.1531 C   0  0  0  0  0  0  0  0  0  0  0  0
   -1.7115    2.3332   -0.8804 C   0  0  0  0  0  0  0  0  0  0  0  0
    5.6584    2.4806   -1.6037 C   0  0  0  0  0  0  0  0  0  0  0  0
    4.6556    1.5398    2.9447 C   0  0  0  0  0  0  0  0  0  0  0  0
   -5.9827    0.8619   -1.6511 C   0  0  0  0  0  0  0  0  0  0  0  0
    0.6123    3.1190    0.4486 C   0  0  0  0  0  0  0  0  0  0  0  0
   -0.5143    2.4611   -1.5848 C   0  0  0  0  0  0  0  0  0  0  0  0
    0.6475    2.8540   -0.9202 C   0  0  0  0  0  0  0  0  0  0  0  0
   -5.7829    1.7562   -2.8561 C   0  0  0  0  0  0  0  0  0  0  0  0
   -0.0584   -2.7206   -1.9020 H   0  0  0  0  0  0  0  0  0  0  0  0
    1.0284   -0.6539   -2.4227 H   0  0  0  0  0  0  0  0  0  0  0  0
    2.2307   -1.9197   -2.6863 H   0  0  0  0  0  0  0  0  0  0  0  0
    0.3888   -0.2454    1.3417 H   0  0  0  0  0  0  0  0  0  0  0  0
    1.1835   -1.7827    1.7602 H   0  0  0  0  0  0  0  0  0  0  0  0
   -1.2940   -0.7986    1.9856 H   0  0  0  0  0  0  0  0  0  0  0  0
   -2.6647    0.0372   -0.0196 H   0  0  0  0  0  0  0  0  0  0  0  0
   -3.6928   -1.4166    2.2955 H   0  0  0  0  0  0  0  0  0  0  0  0
    4.0040   -0.2053   -2.5106 H   0  0  0  0  0  0  0  0  0  0  0  0
    2.7572    0.2812    2.2604 H   0  0  0  0  0  0  0  0  0  0  0  0
   -4.1849    1.0898    2.4388 H   0  0  0  0  0  0  0  0  0  0  0  0
   -2.4540    0.8612    2.5371 H   0  0  0  0  0  0  0  0  0  0  0  0
   -2.1029   -3.7018    2.3207 H   0  0  0  0  0  0  0  0  0  0  0  0
   -0.5373   -3.0208    2.7497 H   0  0  0  0  0  0  0  0  0  0  0  0
   -1.9912   -2.4779    3.5970 H   0  0  0  0  0  0  0  0  0  0  0  0
   -3.0505    3.1886    2.0717 H   0  0  0  0  0  0  0  0  0  0  0  0
   -3.8799    2.7469    0.6053 H   0  0  0  0  0  0  0  0  0  0  0  0
    2.4718   -5.0860   -1.5376 H   0  0  0  0  0  0  0  0  0  0  0  0
   -0.5986    3.1965    2.2201 H   0  0  0  0  0  0  0  0  0  0  0  0
   -2.6064    2.0467   -1.4219 H   0  0  0  0  0  0  0  0  0  0  0  0
    4.9631    2.5305   -2.4477 H   0  0  0  0  0  0  0  0  0  0  0  0
    6.6527    2.7736   -1.9517 H   0  0  0  0  0  0  0  0  0  0  0  0
    5.3444    3.1738   -0.8169 H   0  0  0  0  0  0  0  0  0  0  0  0
    4.6059    0.5576    3.4270 H   0  0  0  0  0  0  0  0  0  0  0  0
    3.7192    2.1004    3.0396 H   0  0  0  0  0  0  0  0  0  0  0  0
    5.4237    2.1141    3.4732 H   0  0  0  0  0  0  0  0  0  0  0  0
   -6.7332    1.3012   -0.9846 H   0  0  0  0  0  0  0  0  0  0  0  0
   -6.3197   -0.1284   -1.9768 H   0  0  0  0  0  0  0  0  0  0  0  0
    1.5177    3.4220    0.9663 H   0  0  0  0  0  0  0  0  0  0  0  0
   -0.4868    2.2573   -2.6512 H   0  0  0  0  0  0  0  0  0  0  0  0
    1.5803    2.9516   -1.4681 H   0  0  0  0  0  0  0  0  0  0  0  0
   -5.4271    2.7447   -2.5469 H   0  0  0  0  0  0  0  0  0  0  0  0
   -5.0210    1.3393   -3.5229 H   0  0  0  0  0  0  0  0  0  0  0  0
   -6.7154    1.8747   -3.4147 H   0  0  0  0  0  0  0  0  0  0  0  0
  1 16  2  0  0  0  0
  2 19  1  0  0  0  0
  2 54  1  0  0  0  0
  3 23  1  0  0  0  0
  3 30  1  0  0  0  0
  4 24  1  0  0  0  0
  4 31  1  0  0  0  0
  5 19  2  0  0  0  0
  6 26  1  0  0  0  0
  6 32  1  0  0  0  0
  7 26  2  0  0  0  0
  8 10  1  0  0  0  0
  8 12  1  0  0  0  0
  8 16  1  0  0  0  0
  9 15  1  0  0  0  0
  9 17  1  0  0  0  0
  9 44  1  0  0  0  0
 10 11  1  0  0  0  0
 10 19  1  0  0  0  0
 10 37  1  0  0  0  0
 11 13  1  0  0  0  0
 11 38  1  0  0  0  0
 11 39  1  0  0  0  0
 12 14  1  0  0  0  0
 12 40  1  0  0  0  0
 12 41  1  0  0  0  0
 13 14  1  0  0  0  0
 13 18  2  0  0  0  0
 14 20  2  0  0  0  0
 15 16  1  0  0  0  0
 15 22  1  0  0  0  0
 15 42  1  0  0  0  0
 17 21  1  0  0  0  0
 17 26  1  0  0  0  0
 17 43  1  0  0  0  0
 18 23  1  0  0  0  0
 18 45  1  0  0  0  0
 20 24  1  0  0  0  0
 20 46  1  0  0  0  0
 21 25  1  0  0  0  0
 21 47  1  0  0  0  0
 21 48  1  0  0  0  0
 22 49  1  0  0  0  0
 22 50  1  0  0  0  0
 22 51  1  0  0  0  0
 23 24  2  0  0  0  0
 25 27  1  0  0  0  0
 25 52  1  0  0  0  0
 25 53  1  0  0  0  0
 27 28  2  0  0  0  0
 27 29  1  0  0  0  0
 28 33  1  0  0  0  0
 28 55  1  0  0  0  0
 29 34  2  0  0  0  0
 29 56  1  0  0  0  0
 30 57  1  0  0  0  0
 30 58  1  0  0  0  0
 30 59  1  0  0  0  0
 31 60  1  0  0  0  0
 31 61  1  0  0  0  0
 31 62  1  0  0  0  0
 32 36  1  0  0  0  0
 32 63  1  0  0  0  0
 32 64  1  0  0  0  0
 33 35  2  0  0  0  0
 33 65  1  0  0  0  0
 34 35  1  0  0  0  0
 34 66  1  0  0  0  0
 35 67  1  0  0  0  0
 36 68  1  0  0  0  0
 36 69  1  0  0  0  0
 36 70  1  0  0  0  0
M  END
> <PUBCHEM_COMPOUND_CID>
4474936

> <PUBCHEM_CONFORMER_RMSD>
1.2

> <PUBCHEM_CONFORMER_DIVERSEORDER>
2
155
32
195
123
12
183
110
182
180
124
46
40
62
59
154
129
61
113
81
138
13
196
82
197
33
126
50
121
200
151
14
66
141
198
47
137
6
54
199
117
162
105
68
147
107
53
160
190
169
22
41
86
80
185
91
26
205
64
140
1
133
57
201
5
202
35
157
164
165
145
178
134
175
24
88
21
135
152
161
116
181
192
127
168
163
176
131
166
172
106
3
148
173
122
60
25
52
114
109
31
130
49
98
142
139
11
71
10
94
179
136
43
128
69
167
45
120
17
101
111
27
188
34
115
16
191
15
63
7
170
119
96
76
153
184
83
72
55
102
8
23
56
30
146
79
39
132
36
174
95
4
19
144
29
73
103
74
177
87
108
171
77
193
125
100
44
48
99
112
67
90
187
75
70
9
85
159
189
158
51
104
78
18
58
84
38
149
194
156
92
203
93
89
20
118
97
37
186
143
42
65
150
204
28

> <PUBCHEM_MMFF94_PARTIAL_CHARGES>
42
1 -0.57
10 0.36
11 0.14
12 0.44
13 -0.14
14 -0.14
15 0.33
16 0.57
17 0.33
18 -0.15
19 0.66
2 -0.65
20 -0.15
23 0.08
24 0.08
25 0.14
26 0.66
27 -0.14
28 -0.15
29 -0.15
3 -0.36
30 0.28
31 0.28
32 0.28
33 -0.15
34 -0.15
35 -0.15
4 -0.36
44 0.36
45 0.15
46 0.15
5 -0.57
54 0.5
55 0.15
56 0.15
6 -0.43
65 0.15
66 0.15
67 0.15
7 -0.57
8 -0.66
9 -0.9

> <PUBCHEM_EFFECTIVE_ROTOR_COUNT>
13.8

> <PUBCHEM_PHARMACOPHORE_FEATURES>
12
1 1 acceptor
1 2 acceptor
1 3 acceptor
1 4 acceptor
1 5 acceptor
1 7 acceptor
1 9 cation
1 9 donor
3 2 5 19 anion
6 13 14 18 20 23 24 rings
6 27 28 29 33 34 35 rings
6 8 10 11 12 13 14 rings

> <PUBCHEM_HEAVY_ATOM_COUNT>
36

> <PUBCHEM_ATOM_DEF_STEREO_COUNT>
0

> <PUBCHEM_ATOM_UDEF_STEREO_COUNT>
3

> <PUBCHEM_BOND_DEF_STEREO_COUNT>
0

> <PUBCHEM_BOND_UDEF_STEREO_COUNT>
0

> <PUBCHEM_ISOTOPIC_ATOM_COUNT>
0

> <PUBCHEM_COMPONENT_COUNT>
1

> <PUBCHEM_CACTVS_TAUTO_COUNT>
1

> <PUBCHEM_CONFORMER_ID>
0044483800000002

> <PUBCHEM_MMFF94_ENERGY>
101.4634

> <PUBCHEM_FEATURE_SELFOVERLAP>
60.98

> <PUBCHEM_SHAPE_FINGERPRINT>
10838868 49 16735478989877380993
10906281 52 18335997406112331745
11093857 51 18339655507135876862
11513181 2 17986968340485682775
12156800 1 17259275398652129177
13140716 1 18122080942091019825
13402501 40 18412831304030104785
14840074 17 18115602554834621380
15297060 5 18127159479163528632
15324884 4 18198080251008228698
17492 54 18333730208709034329
17809404 112 18187091611725331955
20511986 3 16877933966919000232
20715895 44 17387955501169767381
20764821 26 18124052362155379485
21033648 29 17986964131618251338
469060 322 18265028375397785797
563151 74 14274603853567797326
70251023 43 17764862503793178975

> <PUBCHEM_SHAPE_MULTIPOLES>
689.82
11.59
4.78
2.47
2.65
2.66
0.28
-6.69
-2.92
-1.01
-0.63
0.15
-0.26
2.06

> <PUBCHEM_SHAPE_SELFOVERLAP>
1448.768

> <PUBCHEM_SHAPE_VOLUME>
387.4

> <PUBCHEM_COORDINATE_TYPE>
2
5
10

$$$$
