4239
  -OEChem-09252020583D

 32 33  0     0  0  0  0  0  0999 V2000
   -5.3511   -0.4914   -0.0075 O   0  0  0  0  0  0  0  0  0  0  0  0
    0.2380    1.9558   -0.0511 O   0  0  0  0  0  0  0  0  0  0  0  0
    4.4333    0.1119   -0.0048 O   0  0  0  0  0  0  0  0  0  0  0  0
    2.8260   -1.5111    0.0447 O   0  0  0  0  0  0  0  0  0  0  0  0
   -2.5182   -0.3183    0.0217 N   0  0  0  0  0  0  0  0  0  0  0  0
   -1.2194    0.3904   -0.0017 N   0  3  0  0  0  0  0  0  0  0  0  0
   -1.1457    1.6999   -0.0407 N   0  0  0  0  0  0  0  0  0  0  0  0
    2.2704    0.7734   -0.0197 N   0  0  0  0  0  0  0  0  0  0  0  0
   -3.3163    0.0565    1.1946 C   0  0  0  0  0  0  0  0  0  0  0  0
   -3.2827   -0.0841   -1.2086 C   0  0  0  0  0  0  0  0  0  0  0  0
   -4.6203   -0.7354    1.1960 C   0  0  0  0  0  0  0  0  0  0  0  0
   -4.5879   -0.8723   -1.1540 C   0  0  0  0  0  0  0  0  0  0  0  0
   -0.0145   -0.2545    0.0147 C   0  0  0  0  0  0  0  0  0  0  0  0
    0.9059    0.7582   -0.0167 C   0  0  0  0  0  0  0  0  0  0  0  0
    3.1351   -0.3265    0.0102 C   0  0  0  0  0  0  0  0  0  0  0  0
    5.4419   -0.9050    0.0223 C   0  0  0  0  0  0  0  0  0  0  0  0
    6.8054   -0.2475    0.0008 C   0  0  0  0  0  0  0  0  0  0  0  0
   -3.5393    1.1306    1.1790 H   0  0  0  0  0  0  0  0  0  0  0  0
   -2.7582   -0.1602    2.1118 H   0  0  0  0  0  0  0  0  0  0  0  0
   -2.6998   -0.4059   -2.0785 H   0  0  0  0  0  0  0  0  0  0  0  0
   -3.5024    0.9845   -1.3245 H   0  0  0  0  0  0  0  0  0  0  0  0
   -4.4406   -1.8122    1.3027 H   0  0  0  0  0  0  0  0  0  0  0  0
   -5.2475   -0.4195    2.0358 H   0  0  0  0  0  0  0  0  0  0  0  0
   -5.1912   -0.6567   -2.0417 H   0  0  0  0  0  0  0  0  0  0  0  0
   -4.4075   -1.9540   -1.1301 H   0  0  0  0  0  0  0  0  0  0  0  0
    0.1037   -1.3259    0.0461 H   0  0  0  0  0  0  0  0  0  0  0  0
    2.6982    1.6948   -0.0473 H   0  0  0  0  0  0  0  0  0  0  0  0
    5.3333   -1.5022    0.9344 H   0  0  0  0  0  0  0  0  0  0  0  0
    5.3298   -1.5533   -0.8538 H   0  0  0  0  0  0  0  0  0  0  0  0
    7.6014   -0.9971    0.0207 H   0  0  0  0  0  0  0  0  0  0  0  0
    6.9220    0.3685   -0.8968 H   0  0  0  0  0  0  0  0  0  0  0  0
    6.9255    0.4188    0.8614 H   0  0  0  0  0  0  0  0  0  0  0  0
  1 11  1  0  0  0  0
  1 12  1  0  0  0  0
  2  7  1  0  0  0  0
  2 14  1  0  0  0  0
  3 15  1  0  0  0  0
  3 16  1  0  0  0  0
  4 15  2  0  0  0  0
  5  6  1  0  0  0  0
  5  9  1  0  0  0  0
  5 10  1  0  0  0  0
  6  7  2  0  0  0  0
  6 13  1  0  0  0  0
  8 14  1  0  0  0  0
  8 15  1  0  0  0  0
  8 27  1  0  0  0  0
  9 11  1  0  0  0  0
  9 18  1  0  0  0  0
  9 19  1  0  0  0  0
 10 12  1  0  0  0  0
 10 20  1  0  0  0  0
 10 21  1  0  0  0  0
 11 22  1  0  0  0  0
 11 23  1  0  0  0  0
 12 24  1  0  0  0  0
 12 25  1  0  0  0  0
 13 14  2  0  0  0  0
 13 26  1  0  0  0  0
 16 17  1  0  0  0  0
 16 28  1  0  0  0  0
 16 29  1  0  0  0  0
 17 30  1  0  0  0  0
 17 31  1  0  0  0  0
 17 32  1  0  0  0  0
M  CHG  1   6   1
M  END
> <PUBCHEM_COMPOUND_CID>
4239

> <PUBCHEM_CONFORMER_RMSD>
0.8

> <PUBCHEM_CONFORMER_DIVERSEORDER>
1
24
36
26
15
7
42
34
45
14
3
35
40
2
47
43
21
18
27
23
30
37
25
39
10
4
41
33
5
12
19
17
29
9
16
31
28
22
44
46
8
20
6
13
11
38
32

> <PUBCHEM_MMFF94_PARTIAL_CHARGES>
18
1 -0.56
10 0.27
11 0.28
12 0.28
13 0.18
14 0.2
15 0.78
16 0.28
2 -0.02
26 0.15
27 0.37
3 -0.43
4 -0.57
5 -0.28
6 0.37
7 -0.08
8 -0.49
9 0.27

> <PUBCHEM_EFFECTIVE_ROTOR_COUNT>
6.2

> <PUBCHEM_PHARMACOPHORE_FEATURES>
5
1 1 acceptor
1 4 acceptor
1 8 donor
5 2 6 7 13 14 rings
6 1 5 9 10 11 12 rings

> <PUBCHEM_HEAVY_ATOM_COUNT>
17

> <PUBCHEM_ATOM_DEF_STEREO_COUNT>
0

> <PUBCHEM_ATOM_UDEF_STEREO_COUNT>
0

> <PUBCHEM_BOND_DEF_STEREO_COUNT>
0

> <PUBCHEM_BOND_UDEF_STEREO_COUNT>
0

> <PUBCHEM_ISOTOPIC_ATOM_COUNT>
0

> <PUBCHEM_COMPONENT_COUNT>
1

> <PUBCHEM_CACTVS_TAUTO_COUNT>
2

> <PUBCHEM_CONFORMER_ID>
0000108F00000001

> <PUBCHEM_MMFF94_ENERGY>
26.1387

> <PUBCHEM_FEATURE_SELFOVERLAP>
25.372

> <PUBCHEM_SHAPE_FINGERPRINT>
10014705 185 9799396815981907418
100836 57 10447926187662621762
10447042 23 18114455691788181242
10803635 8 16877938343326820123
10968037 39 18408323302425025318
11287383 113 16733270135556992428
11315181 36 17131830993007522387
12091667 2 18412826876029280400
12236239 1 17846780736819511179
12507560 40 14045475418121619037
12596602 18 16845288371267734618
12714333 28 14273455881813457078
13288520 33 18272651246774317357
13583140 156 14692566585738110981
13740256 8 18261679271785765971
13760787 5 18409733996996694533
13862211 1 18410852162073716142
1420 363 18408045104756333226
14251718 22 16805324401021684970
14251731 8 17240482519950629891
14252887 29 18059864939242028726
14350574 20 17967817166795387036
15716309 27 18059856156181542786
17834072 33 17489305321689951392
17834076 25 11314027972266640462
1813 80 18271260360096523844
187816 3 17603304851609983016
19489759 90 15574712486906333510
200 152 18408319969377383716
20281389 69 11095880458927707106
20325693 3 15864067681266209915
20645477 56 11167939147881310032
20645477 70 18261392281859907567
20871999 31 17313099722473344693
21267235 1 18410862065809040022
22224240 67 17131826578177047510
2297311 6 16443066110653944143
23035841 295 17846500318795451062
23198884 109 14056719041133038690
23402539 116 18413106143319090853
23536379 177 14923937938673575514
23559900 14 17458908248787542484
26918003 58 18186805785366326523
2767999 5 8502372213759022734
2871803 45 18187363195302682706
293599 30 9583518715864046580
314173 85 18273222979783066516
351380 3 18342172267545274198
3545911 37 9511460030872861412
4463277 17 18412263930545204992
474229 33 18408324385068396986
5104073 3 18197774406850622738
59682541 35 18341606067166325546

> <PUBCHEM_SHAPE_MULTIPOLES>
306.45
14.13
1.26
0.95
13.63
0.41
0.01
-5.4
0.21
0.16
-0.04
-1.49
-0.15
-0.12

> <PUBCHEM_SHAPE_SELFOVERLAP>
618.331

> <PUBCHEM_SHAPE_VOLUME>
179.8

> <PUBCHEM_COORDINATE_TYPE>
2
5
10

$$$$
