248862
  -OEChem-09252020593D

 36 38  0     1  0  0  0  0  0999 V2000
    1.9714    0.3607    1.1229 O   0  0  0  0  0  0  0  0  0  0  0  0
    2.2679    1.1960   -2.3454 O   0  0  0  0  0  0  0  0  0  0  0  0
    3.5453   -1.5009   -1.5102 O   0  0  0  0  0  0  0  0  0  0  0  0
    4.7068    0.3677    1.6686 O   0  0  0  0  0  0  0  0  0  0  0  0
   -4.4994    0.5899    0.2057 O   0  0  0  0  0  0  0  0  0  0  0  0
    0.0589    1.2406    0.0413 N   0  0  0  0  0  0  0  0  0  0  0  0
   -1.9285    2.2418    0.1907 N   0  0  0  0  0  0  0  0  0  0  0  0
   -0.6520   -1.0799   -0.0661 N   0  0  0  0  0  0  0  0  0  0  0  0
   -3.0834   -1.2683    0.0310 N   0  0  0  0  0  0  0  0  0  0  0  0
   -1.7160   -3.1624   -0.1432 N   0  0  0  0  0  0  0  0  0  0  0  0
    1.9854    0.3259   -1.2633 C   0  0  2  0  0  0  0  0  0  0  0  0
    1.5108    1.0889   -0.0318 C   0  0  2  0  0  0  0  0  0  0  0  0
    3.2351   -0.3525   -0.7439 C   0  0  1  0  0  0  0  0  0  0  0  0
    2.8204   -0.7099    0.6745 C   0  0  1  0  0  0  0  0  0  0  0  0
    3.9940   -0.8578    1.6262 C   0  0  0  0  0  0  0  0  0  0  0  0
   -0.8722    0.2405    0.0229 C   0  0  0  0  0  0  0  0  0  0  0  0
   -0.6252    2.4236    0.1439 C   0  0  0  0  0  0  0  0  0  0  0  0
   -2.0969    0.8820    0.1159 C   0  0  0  0  0  0  0  0  0  0  0  0
   -3.2307    0.0757    0.1178 C   0  0  0  0  0  0  0  0  0  0  0  0
   -1.8219   -1.7555   -0.0544 C   0  0  0  0  0  0  0  0  0  0  0  0
   -5.5699   -0.3459    0.1969 C   0  0  0  0  0  0  0  0  0  0  0  0
    1.2703   -0.4171   -1.6298 H   0  0  0  0  0  0  0  0  0  0  0  0
    1.9446    2.0953    0.0104 H   0  0  0  0  0  0  0  0  0  0  0  0
    4.0905    0.3303   -0.7885 H   0  0  0  0  0  0  0  0  0  0  0  0
    2.2325   -1.6359    0.6928 H   0  0  0  0  0  0  0  0  0  0  0  0
    4.6700   -1.6550    1.3023 H   0  0  0  0  0  0  0  0  0  0  0  0
    3.6388   -1.0712    2.6393 H   0  0  0  0  0  0  0  0  0  0  0  0
    1.4444    1.6641   -2.5653 H   0  0  0  0  0  0  0  0  0  0  0  0
    2.7885   -2.1100   -1.4717 H   0  0  0  0  0  0  0  0  0  0  0  0
   -0.1244    3.3815    0.1793 H   0  0  0  0  0  0  0  0  0  0  0  0
    5.4485    0.2461    2.2855 H   0  0  0  0  0  0  0  0  0  0  0  0
   -0.8017   -3.5881   -0.2101 H   0  0  0  0  0  0  0  0  0  0  0  0
   -2.5557   -3.7247   -0.1402 H   0  0  0  0  0  0  0  0  0  0  0  0
   -5.5872   -0.9121   -0.7403 H   0  0  0  0  0  0  0  0  0  0  0  0
   -6.5076    0.2124    0.2725 H   0  0  0  0  0  0  0  0  0  0  0  0
   -5.5071   -1.0208    1.0570 H   0  0  0  0  0  0  0  0  0  0  0  0
  1 12  1  0  0  0  0
  1 14  1  0  0  0  0
  2 11  1  0  0  0  0
  2 28  1  0  0  0  0
  3 13  1  0  0  0  0
  3 29  1  0  0  0  0
  4 15  1  0  0  0  0
  4 31  1  0  0  0  0
  5 19  1  0  0  0  0
  5 21  1  0  0  0  0
  6 12  1  0  0  0  0
  6 16  1  0  0  0  0
  6 17  1  0  0  0  0
  7 17  2  0  0  0  0
  7 18  1  0  0  0  0
  8 16  1  0  0  0  0
  8 20  2  0  0  0  0
  9 19  2  0  0  0  0
  9 20  1  0  0  0  0
 10 20  1  0  0  0  0
 10 32  1  0  0  0  0
 10 33  1  0  0  0  0
 11 12  1  0  0  0  0
 11 13  1  0  0  0  0
 11 22  1  0  0  0  0
 12 23  1  0  0  0  0
 13 14  1  0  0  0  0
 13 24  1  0  0  0  0
 14 15  1  0  0  0  0
 14 25  1  0  0  0  0
 15 26  1  0  0  0  0
 15 27  1  0  0  0  0
 16 18  2  0  0  0  0
 17 30  1  0  0  0  0
 18 19  1  0  0  0  0
 21 34  1  0  0  0  0
 21 35  1  0  0  0  0
 21 36  1  0  0  0  0
M  END
> <PUBCHEM_COMPOUND_CID>
248862

> <PUBCHEM_CONFORMER_RMSD>
0.6

> <PUBCHEM_CONFORMER_DIVERSEORDER>
1
117
100
241
129
245
20
30
238
35
168
251
151
185
174
8
252
229
191
87
226
22
94
118
149
249
195
6
136
178
9
139
193
198
146
172
148
116
47
59
147
21
12
107
134
80
75
209
124
43
106
93
18
189
23
248
239
143
230
4
44
95
199
56
223
36
51
10
73
201
115
192
61
70
160
123
55
158
180
90
99
98
83
27
34
231
240
96
200
74
92
91
194
126
227
19
86
53
140
14
120
119
188
222
45
156
145
66
215
232
37
163
179
196
133
3
152
68
155
7
176
211
33
186
135
13
41
17
85
237
177
250
187
32
76
78
224
62
213
31
121
220
69
197
50
104
161
57
154
132
130
26
141
247
112
110
171
29
122
89
203
38
216
60
108
131
40
24
207
63
28
159
175
169
97
81
162
208
15
102
101
218
204
54
84
228
64
219
103
244
71
5
210
217
79
165
150
221
88
235
167
58
246
46
182
65
125
113
49
206
2
202
128
173
243
236
72
157
181
39
164
138
48
77
25
82
166
105
225
127
144
111
242
212
42
109
153
190
11
233
114
16
137
183
234
142
205
214
52
67
184
170

> <PUBCHEM_MMFF94_PARTIAL_CHARGES>
27
1 -0.56
10 -0.9
11 0.28
12 0.54
13 0.28
14 0.28
15 0.28
16 0.11
17 0.04
18 0.23
19 0.39
2 -0.68
20 0.72
21 0.28
28 0.4
29 0.4
3 -0.68
30 0.15
31 0.4
32 0.4
33 0.4
4 -0.68
5 -0.36
6 0.05
7 -0.57
8 -0.57
9 -0.62

> <PUBCHEM_EFFECTIVE_ROTOR_COUNT>
4

> <PUBCHEM_PHARMACOPHORE_FEATURES>
13
1 1 acceptor
1 10 donor
1 2 acceptor
1 2 donor
1 3 acceptor
1 3 donor
1 4 acceptor
1 4 donor
3 6 7 17 cation
4 8 9 10 20 cation
5 1 11 12 13 14 rings
5 6 7 16 17 18 rings
6 8 9 16 18 19 20 rings

> <PUBCHEM_HEAVY_ATOM_COUNT>
21

> <PUBCHEM_ATOM_DEF_STEREO_COUNT>
0

> <PUBCHEM_ATOM_UDEF_STEREO_COUNT>
4

> <PUBCHEM_BOND_DEF_STEREO_COUNT>
0

> <PUBCHEM_BOND_UDEF_STEREO_COUNT>
0

> <PUBCHEM_ISOTOPIC_ATOM_COUNT>
0

> <PUBCHEM_COMPONENT_COUNT>
1

> <PUBCHEM_CACTVS_TAUTO_COUNT>
3

> <PUBCHEM_CONFORMER_ID>
0003CC1E00000001

> <PUBCHEM_MMFF94_ENERGY>
55.9945

> <PUBCHEM_FEATURE_SELFOVERLAP>
66.11

> <PUBCHEM_SHAPE_FINGERPRINT>
11132069 177 18272088288426140195
11578080 2 17605526977859403660
11582403 64 16330412133378796096
12236239 1 17821730507558857248
12553582 1 18339932609498347359
12592029 89 18260554385992514883
12633257 1 18058708291664262818
12670545 2 18040998418909816455
12788726 201 18336839618712417080
13083527 12 17124486426927182719
13134695 92 15719385149511652628
13140716 1 18267017435209035867
13538477 17 18261116308767925726
13544592 145 18059862731233348990
13862211 1 18410568501343663339
14115302 16 18333455364865962005
14178342 30 18121213182530007712
15342168 16 15122927626051447560
15375358 24 17989484143027267042
15848700 24 18273496784338524853
16752209 62 18337962186051302141
16945 1 18341058466650806125
1813 80 17168985570212678690
19049666 15 17630045958240379128
19141452 34 17917990599013791447
19784866 240 17095518440447569450
200 152 15936685986915063808
20028762 73 18059015124745976663
20510252 161 18129940066270068153
20600515 1 18342170102808073033
20645476 183 17677064537082447247
20905425 154 17911247113316337759
22112679 90 17822573803155404396
22959321 94 18408316683606011746
23184049 29 18339076102867429192
232386 152 18409161147444030754
23366157 5 17900257812588092757
23402539 116 18272072899774616101
23419403 2 17542456899182517844
23557571 272 18202005395923858352
23559900 14 18271535264374508796
23598291 2 17459761311112996260
2748010 2 18052821639695540701
296302 2 15698276724675038089
3004659 81 18259711102869165989
3286 77 16916796119333890638
34934 24 18266745868421514884
4340502 62 14908179768347498357
43471831 8 18192712246220420387
465052 167 17968390026129923755
474 4 17097231638704742804
5104073 3 18339647866790016553
58807428 26 18196096538847149051
77492 1 17749679501948156740
81228 2 17844832316047318969
9709674 26 18273493485640176022

> <PUBCHEM_SHAPE_MULTIPOLES>
377.92
8.7
2.22
1.33
3.01
0.46
-0.32
1.99
1.9
1.16
-0.18
-2.28
-0.07
-0.34

> <PUBCHEM_SHAPE_SELFOVERLAP>
816.889

> <PUBCHEM_SHAPE_VOLUME>
205.6

> <PUBCHEM_COORDINATE_TYPE>
2
5
10

$$$$
