4451
  -OEChem-09252020593D

 85 88  0     1  0  0  0  0  0999 V2000
    2.2072    3.1587    2.2852 S   0  0  0  0  0  0  0  0  0  0  0  0
   -2.0810   -2.1258   -1.4233 O   0  0  0  0  0  0  0  0  0  0  0  0
   -0.8690    1.8998   -1.7354 O   0  0  0  0  0  0  0  0  0  0  0  0
    1.9838    2.3184   -2.3069 O   0  0  0  0  0  0  0  0  0  0  0  0
    6.6428   -0.2668   -2.3684 O   0  0  0  0  0  0  0  0  0  0  0  0
   -2.7553    0.4228   -0.2196 N   0  0  2  0  0  0  0  0  0  0  0  0
   -1.6793   -2.6522    0.8084 N   0  0  0  0  0  0  0  0  0  0  0  0
    1.4995    1.4604   -0.2081 N   0  0  0  0  0  0  0  0  0  0  0  0
   -5.6259   -0.1606    0.0945 C   0  0  2  0  0  0  0  0  0  0  0  0
   -5.1186    1.1843   -0.4482 C   0  0  2  0  0  0  0  0  0  0  0  0
   -4.6096   -1.2531   -0.2396 C   0  0  0  0  0  0  0  0  0  0  0  0
   -3.7221    1.4867    0.1137 C   0  0  0  0  0  0  0  0  0  0  0  0
   -7.0155   -0.4866   -0.4633 C   0  0  0  0  0  0  0  0  0  0  0  0
   -6.1109    2.3065   -0.1168 C   0  0  0  0  0  0  0  0  0  0  0  0
   -3.2101   -0.8883    0.2778 C   0  0  1  0  0  0  0  0  0  0  0  0
   -8.0088    0.6329   -0.1579 C   0  0  0  0  0  0  0  0  0  0  0  0
   -7.5067    1.9879   -0.6502 C   0  0  0  0  0  0  0  0  0  0  0  0
   -1.4402    0.7887    0.3217 C   0  0  0  0  0  0  0  0  0  0  0  0
   -2.2661   -1.9399   -0.2234 C   0  0  0  0  0  0  0  0  0  0  0  0
   -0.8856    2.0701   -0.3163 C   0  0  1  0  0  0  0  0  0  0  0  0
    0.5291    2.4687    0.1638 C   0  0  1  0  0  0  0  0  0  0  0  0
   -0.7479   -3.7356    0.5914 C   0  0  0  0  0  0  0  0  0  0  0  0
    0.5492    2.7044    1.6822 C   0  0  0  0  0  0  0  0  0  0  0  0
   -0.2980   -4.2960    1.9455 C   0  0  0  0  0  0  0  0  0  0  0  0
   -1.4395   -4.8353   -0.2211 C   0  0  0  0  0  0  0  0  0  0  0  0
    0.4701   -3.2105   -0.1773 C   0  0  0  0  0  0  0  0  0  0  0  0
    2.1509    1.4752   -1.4296 C   0  0  0  0  0  0  0  0  0  0  0  0
    3.0978    0.3558   -1.6697 C   0  0  0  0  0  0  0  0  0  0  0  0
    2.8950    1.5509    2.6587 C   0  0  0  0  0  0  0  0  0  0  0  0
    4.4513    0.5924   -1.9098 C   0  0  0  0  0  0  0  0  0  0  0  0
    2.6107   -0.9512   -1.6517 C   0  0  0  0  0  0  0  0  0  0  0  0
    2.2760    0.7294    3.6007 C   0  0  0  0  0  0  0  0  0  0  0  0
    4.0507    1.1186    2.0084 C   0  0  0  0  0  0  0  0  0  0  0  0
    5.3177   -0.4779   -2.1318 C   0  0  0  0  0  0  0  0  0  0  0  0
    4.9823    1.9907   -1.9307 C   0  0  0  0  0  0  0  0  0  0  0  0
    3.4771   -2.0214   -1.8737 C   0  0  0  0  0  0  0  0  0  0  0  0
    2.8127   -0.5246    3.8925 C   0  0  0  0  0  0  0  0  0  0  0  0
    4.5874   -0.1354    2.3000 C   0  0  0  0  0  0  0  0  0  0  0  0
    4.8306   -1.7849   -2.1138 C   0  0  0  0  0  0  0  0  0  0  0  0
    3.9684   -0.9570    3.2421 C   0  0  0  0  0  0  0  0  0  0  0  0
   -5.7074   -0.0942    1.1890 H   0  0  0  0  0  0  0  0  0  0  0  0
   -5.0395    1.1182   -1.5436 H   0  0  0  0  0  0  0  0  0  0  0  0
   -4.5896   -1.4135   -1.3266 H   0  0  0  0  0  0  0  0  0  0  0  0
   -4.9289   -2.2055    0.2033 H   0  0  0  0  0  0  0  0  0  0  0  0
   -3.4303    2.4412   -0.3325 H   0  0  0  0  0  0  0  0  0  0  0  0
   -3.7790    1.6338    1.2008 H   0  0  0  0  0  0  0  0  0  0  0  0
   -6.9597   -0.6354   -1.5491 H   0  0  0  0  0  0  0  0  0  0  0  0
   -7.3821   -1.4254   -0.0316 H   0  0  0  0  0  0  0  0  0  0  0  0
   -6.1625    2.4533    0.9695 H   0  0  0  0  0  0  0  0  0  0  0  0
   -5.7661    3.2528   -0.5500 H   0  0  0  0  0  0  0  0  0  0  0  0
   -3.2412   -0.8744    1.3755 H   0  0  0  0  0  0  0  0  0  0  0  0
   -8.1808    0.6808    0.9245 H   0  0  0  0  0  0  0  0  0  0  0  0
   -8.9743    0.4061   -0.6241 H   0  0  0  0  0  0  0  0  0  0  0  0
   -8.2063    2.7735   -0.3432 H   0  0  0  0  0  0  0  0  0  0  0  0
   -7.4856    1.9905   -1.7470 H   0  0  0  0  0  0  0  0  0  0  0  0
   -0.7244   -0.0117    0.1060 H   0  0  0  0  0  0  0  0  0  0  0  0
   -1.5020    0.8837    1.4111 H   0  0  0  0  0  0  0  0  0  0  0  0
   -1.5223    2.9331   -0.0992 H   0  0  0  0  0  0  0  0  0  0  0  0
   -1.9084   -2.4109    1.7682 H   0  0  0  0  0  0  0  0  0  0  0  0
    0.8085    3.3972   -0.3523 H   0  0  0  0  0  0  0  0  0  0  0  0
   -1.7729    1.6762   -2.0150 H   0  0  0  0  0  0  0  0  0  0  0  0
   -0.1243    3.5334    1.9261 H   0  0  0  0  0  0  0  0  0  0  0  0
    0.1945    1.8350    2.2387 H   0  0  0  0  0  0  0  0  0  0  0  0
    1.6444    0.6766    0.4213 H   0  0  0  0  0  0  0  0  0  0  0  0
    0.4100   -5.1228    1.8213 H   0  0  0  0  0  0  0  0  0  0  0  0
   -1.1523   -4.6687    2.5226 H   0  0  0  0  0  0  0  0  0  0  0  0
    0.1905   -3.5230    2.5506 H   0  0  0  0  0  0  0  0  0  0  0  0
   -0.7912   -5.7146   -0.3144 H   0  0  0  0  0  0  0  0  0  0  0  0
   -2.3681   -5.1591    0.2636 H   0  0  0  0  0  0  0  0  0  0  0  0
   -1.6936   -4.5228   -1.2384 H   0  0  0  0  0  0  0  0  0  0  0  0
    1.2409   -3.9856   -0.2581 H   0  0  0  0  0  0  0  0  0  0  0  0
    0.9113   -2.3545    0.3452 H   0  0  0  0  0  0  0  0  0  0  0  0
    0.2188   -2.9057   -1.1965 H   0  0  0  0  0  0  0  0  0  0  0  0
    1.5526   -1.1286   -1.5030 H   0  0  0  0  0  0  0  0  0  0  0  0
    1.3818    1.0489    4.1299 H   0  0  0  0  0  0  0  0  0  0  0  0
    4.5494    1.7469    1.2755 H   0  0  0  0  0  0  0  0  0  0  0  0
    4.5319    2.6034   -1.1427 H   0  0  0  0  0  0  0  0  0  0  0  0
    6.0621    2.0273   -1.7529 H   0  0  0  0  0  0  0  0  0  0  0  0
    4.7821    2.4540   -2.9022 H   0  0  0  0  0  0  0  0  0  0  0  0
    3.0975   -3.0387   -1.8718 H   0  0  0  0  0  0  0  0  0  0  0  0
    2.3320   -1.1637    4.6274 H   0  0  0  0  0  0  0  0  0  0  0  0
    5.4867   -0.4723    1.7927 H   0  0  0  0  0  0  0  0  0  0  0  0
    5.4935   -2.6283   -2.2877 H   0  0  0  0  0  0  0  0  0  0  0  0
    4.3861   -1.9335    3.4689 H   0  0  0  0  0  0  0  0  0  0  0  0
    7.0831   -1.1243   -2.4977 H   0  0  0  0  0  0  0  0  0  0  0  0
  1 23  1  0  0  0  0
  1 29  1  0  0  0  0
  2 19  2  0  0  0  0
  3 20  1  0  0  0  0
  3 61  1  0  0  0  0
  4 27  2  0  0  0  0
  5 34  1  0  0  0  0
  5 85  1  0  0  0  0
  6 12  1  0  0  0  0
  6 15  1  0  0  0  0
  6 18  1  0  0  0  0
  7 19  1  0  0  0  0
  7 22  1  0  0  0  0
  7 59  1  0  0  0  0
  8 21  1  0  0  0  0
  8 27  1  0  0  0  0
  8 64  1  0  0  0  0
  9 10  1  0  0  0  0
  9 11  1  0  0  0  0
  9 13  1  0  0  0  0
  9 41  1  0  0  0  0
 10 12  1  0  0  0  0
 10 14  1  0  0  0  0
 10 42  1  0  0  0  0
 11 15  1  0  0  0  0
 11 43  1  0  0  0  0
 11 44  1  0  0  0  0
 12 45  1  0  0  0  0
 12 46  1  0  0  0  0
 13 16  1  0  0  0  0
 13 47  1  0  0  0  0
 13 48  1  0  0  0  0
 14 17  1  0  0  0  0
 14 49  1  0  0  0  0
 14 50  1  0  0  0  0
 15 19  1  0  0  0  0
 15 51  1  0  0  0  0
 16 17  1  0  0  0  0
 16 52  1  0  0  0  0
 16 53  1  0  0  0  0
 17 54  1  0  0  0  0
 17 55  1  0  0  0  0
 18 20  1  0  0  0  0
 18 56  1  0  0  0  0
 18 57  1  0  0  0  0
 20 21  1  0  0  0  0
 20 58  1  0  0  0  0
 21 23  1  0  0  0  0
 21 60  1  0  0  0  0
 22 24  1  0  0  0  0
 22 25  1  0  0  0  0
 22 26  1  0  0  0  0
 23 62  1  0  0  0  0
 23 63  1  0  0  0  0
 24 65  1  0  0  0  0
 24 66  1  0  0  0  0
 24 67  1  0  0  0  0
 25 68  1  0  0  0  0
 25 69  1  0  0  0  0
 25 70  1  0  0  0  0
 26 71  1  0  0  0  0
 26 72  1  0  0  0  0
 26 73  1  0  0  0  0
 27 28  1  0  0  0  0
 28 30  2  0  0  0  0
 28 31  1  0  0  0  0
 29 32  2  0  0  0  0
 29 33  1  0  0  0  0
 30 34  1  0  0  0  0
 30 35  1  0  0  0  0
 31 36  2  0  0  0  0
 31 74  1  0  0  0  0
 32 37  1  0  0  0  0
 32 75  1  0  0  0  0
 33 38  2  0  0  0  0
 33 76  1  0  0  0  0
 34 39  2  0  0  0  0
 35 77  1  0  0  0  0
 35 78  1  0  0  0  0
 35 79  1  0  0  0  0
 36 39  1  0  0  0  0
 36 80  1  0  0  0  0
 37 40  2  0  0  0  0
 37 81  1  0  0  0  0
 38 40  1  0  0  0  0
 38 82  1  0  0  0  0
 39 83  1  0  0  0  0
 40 84  1  0  0  0  0
M  END
> <PUBCHEM_COMPOUND_CID>
4451

> <PUBCHEM_CONFORMER_RMSD>
2

> <PUBCHEM_CONFORMER_DIVERSEORDER>
2
65
24
47
70
10
22
27
51
1
42
73
15
18
50
8
12
52
74
68
26
28
30
66
67
32
44
45
43
16
37
72
23
61
20
41
4
78
29
33
9
54
3
7
34
60
71
35
48
63
56
14
39
76
75
17
6
55
46
13
40
11
21
49
64
62
31
77
69
19
36
53
38
25
58
57
59
5

> <PUBCHEM_MMFF94_PARTIAL_CHARGES>
42
1 -0.33
12 0.27
15 0.33
18 0.27
19 0.57
2 -0.57
20 0.28
21 0.3
22 0.3
23 0.23
27 0.54
28 0.09
29 0.1
3 -0.68
30 -0.14
31 -0.15
32 -0.15
33 -0.15
34 0.08
35 0.14
36 -0.15
37 -0.15
38 -0.15
39 -0.15
4 -0.57
40 -0.15
5 -0.53
59 0.37
6 -0.81
61 0.4
64 0.37
7 -0.73
74 0.15
75 0.15
76 0.15
8 -0.73
80 0.15
81 0.15
82 0.15
83 0.15
84 0.15
85 0.45

> <PUBCHEM_EFFECTIVE_ROTOR_COUNT>
13.6

> <PUBCHEM_PHARMACOPHORE_FEATURES>
13
1 2 acceptor
1 3 acceptor
1 3 donor
1 4 acceptor
1 5 donor
1 6 cation
1 7 donor
1 8 donor
4 22 24 25 26 hydrophobe
6 28 30 31 34 36 39 rings
6 29 32 33 37 38 40 rings
6 6 9 10 11 12 15 rings
6 9 10 13 14 16 17 rings

> <PUBCHEM_HEAVY_ATOM_COUNT>
40

> <PUBCHEM_ATOM_DEF_STEREO_COUNT>
0

> <PUBCHEM_ATOM_UDEF_STEREO_COUNT>
5

> <PUBCHEM_BOND_DEF_STEREO_COUNT>
0

> <PUBCHEM_BOND_UDEF_STEREO_COUNT>
0

> <PUBCHEM_ISOTOPIC_ATOM_COUNT>
0

> <PUBCHEM_COMPONENT_COUNT>
1

> <PUBCHEM_CACTVS_TAUTO_COUNT>
12

> <PUBCHEM_CONFORMER_ID>
0000116300000002

> <PUBCHEM_MMFF94_ENERGY>
99.4496

> <PUBCHEM_FEATURE_SELFOVERLAP>
65.993

> <PUBCHEM_SHAPE_FINGERPRINT>
11445158 3 14707747568457738433
12422481 6 17897423052947740129
13165054 342 18042388270901763144
13617811 41 18408040685219765789
13636023 51 17703790374914708764
13726171 33 18118418455848096636
13751561 76 18202559567154004970
13947947 73 15482389738444045393
14725015 67 18269837506193020742
14932702 115 18053974958599891572
15001296 14 17967818283592385876
15183329 4 18041002817573792237
15264996 154 17969777493550904139
15264996 19 16734416964697843195
15351339 4 18267311928094561259
15781502 593 18040724688349984395
21781051 124 18187372081991114211
23559900 14 18200879586106152213
3004659 81 18334583442532798885
3044373 193 17131544042348819329
4093350 32 15140957340345741161
513532 50 17989197136059137970
550186 83 17749106699070818028
6679774 75 18113612383439277587
6823239 73 18202003274151712728
77296 10 16414903262622355741
86090 222 18201711830081297483

> <PUBCHEM_SHAPE_MULTIPOLES>
788.61
15.72
4.61
3.44
24.78
4.63
2.45
-5.02
-6.22
0.88
1.37
-8.39
-0.46
1.92

> <PUBCHEM_SHAPE_SELFOVERLAP>
1640.123

> <PUBCHEM_SHAPE_VOLUME>
450.4

> <PUBCHEM_COORDINATE_TYPE>
2
5
10

$$$$
