526668
  -OEChem-09252020593D

 40 41  0     1  0  0  0  0  0999 V2000
    0.5928   -2.1019   -0.0329 O   0  0  0  0  0  0  0  0  0  0  0  0
   -0.9716   -1.5415   -1.6377 O   0  0  0  0  0  0  0  0  0  0  0  0
   -1.4231    2.3238   -0.0652 N   0  0  0  0  0  0  0  0  0  0  0  0
   -0.4446    0.0082    0.1574 C   0  0  2  0  0  0  0  0  0  0  0  0
   -1.5120    0.9322   -0.5345 C   0  0  1  0  0  0  0  0  0  0  0  0
   -0.9533   -0.3840    1.5728 C   0  0  0  0  0  0  0  0  0  0  0  0
   -2.3322   -1.0614    1.5552 C   0  0  0  0  0  0  0  0  0  0  0  0
    0.9519    0.6580    0.1427 C   0  0  0  0  0  0  0  0  0  0  0  0
   -2.9293    0.4432   -0.3459 C   0  0  0  0  0  0  0  0  0  0  0  0
   -0.3268   -1.2904   -0.6285 C   0  0  0  0  0  0  0  0  0  0  0  0
   -3.2896   -0.4571    0.5775 C   0  0  0  0  0  0  0  0  0  0  0  0
    1.5416    0.9969   -1.0705 C   0  0  0  0  0  0  0  0  0  0  0  0
    1.6117    0.9011    1.3428 C   0  0  0  0  0  0  0  0  0  0  0  0
   -2.3205    3.1731   -0.8268 C   0  0  0  0  0  0  0  0  0  0  0  0
    2.8061    1.5855   -1.0838 C   0  0  0  0  0  0  0  0  0  0  0  0
    2.8762    1.4898    1.3292 C   0  0  0  0  0  0  0  0  0  0  0  0
    3.4733    1.8320    0.1158 C   0  0  0  0  0  0  0  0  0  0  0  0
    0.8040   -3.3649   -0.6720 C   0  0  0  0  0  0  0  0  0  0  0  0
    1.8453   -4.1425    0.1044 C   0  0  0  0  0  0  0  0  0  0  0  0
   -1.3113    0.9305   -1.6152 H   0  0  0  0  0  0  0  0  0  0  0  0
   -1.0365    0.5157    2.1983 H   0  0  0  0  0  0  0  0  0  0  0  0
   -0.2580   -1.0558    2.0930 H   0  0  0  0  0  0  0  0  0  0  0  0
   -2.7636   -1.0107    2.5617 H   0  0  0  0  0  0  0  0  0  0  0  0
   -2.2195   -2.1258    1.3160 H   0  0  0  0  0  0  0  0  0  0  0  0
   -3.6944    0.8079   -1.0271 H   0  0  0  0  0  0  0  0  0  0  0  0
   -4.3250   -0.7821    0.6238 H   0  0  0  0  0  0  0  0  0  0  0  0
   -1.6350    2.3839    0.9296 H   0  0  0  0  0  0  0  0  0  0  0  0
    1.0411    0.8109   -2.0163 H   0  0  0  0  0  0  0  0  0  0  0  0
    1.1931    0.6580    2.3123 H   0  0  0  0  0  0  0  0  0  0  0  0
   -3.3738    3.0262   -0.5685 H   0  0  0  0  0  0  0  0  0  0  0  0
   -2.1874    3.0554   -1.9078 H   0  0  0  0  0  0  0  0  0  0  0  0
   -2.0891    4.2186   -0.5955 H   0  0  0  0  0  0  0  0  0  0  0  0
    3.2716    1.8513   -2.0284 H   0  0  0  0  0  0  0  0  0  0  0  0
    3.3964    1.6827    2.2629 H   0  0  0  0  0  0  0  0  0  0  0  0
    4.4579    2.2903    0.1054 H   0  0  0  0  0  0  0  0  0  0  0  0
   -0.1374   -3.9250   -0.6927 H   0  0  0  0  0  0  0  0  0  0  0  0
    1.1527   -3.2008   -1.6976 H   0  0  0  0  0  0  0  0  0  0  0  0
    2.0320   -5.1158   -0.3578 H   0  0  0  0  0  0  0  0  0  0  0  0
    2.7870   -3.5856    0.1497 H   0  0  0  0  0  0  0  0  0  0  0  0
    1.5183   -4.2981    1.1378 H   0  0  0  0  0  0  0  0  0  0  0  0
  1 10  1  0  0  0  0
  1 18  1  0  0  0  0
  2 10  2  0  0  0  0
  3  5  1  0  0  0  0
  3 14  1  0  0  0  0
  3 27  1  0  0  0  0
  4  5  1  0  0  0  0
  4  6  1  0  0  0  0
  4  8  1  0  0  0  0
  4 10  1  0  0  0  0
  5  9  1  0  0  0  0
  5 20  1  0  0  0  0
  6  7  1  0  0  0  0
  6 21  1  0  0  0  0
  6 22  1  0  0  0  0
  7 11  1  0  0  0  0
  7 23  1  0  0  0  0
  7 24  1  0  0  0  0
  8 12  2  0  0  0  0
  8 13  1  0  0  0  0
  9 11  2  0  0  0  0
  9 25  1  0  0  0  0
 11 26  1  0  0  0  0
 12 15  1  0  0  0  0
 12 28  1  0  0  0  0
 13 16  2  0  0  0  0
 13 29  1  0  0  0  0
 14 30  1  0  0  0  0
 14 31  1  0  0  0  0
 14 32  1  0  0  0  0
 15 17  2  0  0  0  0
 15 33  1  0  0  0  0
 16 17  1  0  0  0  0
 16 34  1  0  0  0  0
 17 35  1  0  0  0  0
 18 19  1  0  0  0  0
 18 36  1  0  0  0  0
 18 37  1  0  0  0  0
 19 38  1  0  0  0  0
 19 39  1  0  0  0  0
 19 40  1  0  0  0  0
M  END
> <PUBCHEM_COMPOUND_CID>
526668

> <PUBCHEM_CONFORMER_RMSD>
0.8

> <PUBCHEM_CONFORMER_DIVERSEORDER>
1
10
34
33
11
23
35
24
14
8
17
15
9
30
21
5
6
25
32
13
20
2
3
7
4
19
12
28
27
22
31
29
16
26
18

> <PUBCHEM_MMFF94_PARTIAL_CHARGES>
25
1 -0.43
10 0.66
11 -0.29
12 -0.15
13 -0.15
14 0.27
15 -0.15
16 -0.15
17 -0.15
18 0.28
2 -0.57
25 0.15
26 0.15
27 0.36
28 0.15
29 0.15
3 -0.9
33 0.15
34 0.15
35 0.15
4 0.2
5 0.41
7 0.14
8 -0.14
9 -0.29

> <PUBCHEM_EFFECTIVE_ROTOR_COUNT>
5.8

> <PUBCHEM_PHARMACOPHORE_FEATURES>
5
1 2 acceptor
1 3 cation
1 3 donor
6 4 5 6 7 9 11 rings
6 8 12 13 15 16 17 rings

> <PUBCHEM_HEAVY_ATOM_COUNT>
19

> <PUBCHEM_ATOM_DEF_STEREO_COUNT>
0

> <PUBCHEM_ATOM_UDEF_STEREO_COUNT>
2

> <PUBCHEM_BOND_DEF_STEREO_COUNT>
0

> <PUBCHEM_BOND_UDEF_STEREO_COUNT>
0

> <PUBCHEM_ISOTOPIC_ATOM_COUNT>
0

> <PUBCHEM_COMPONENT_COUNT>
1

> <PUBCHEM_CACTVS_TAUTO_COUNT>
1

> <PUBCHEM_CONFORMER_ID>
0008094C00000001

> <PUBCHEM_MMFF94_ENERGY>
47.653

> <PUBCHEM_FEATURE_SELFOVERLAP>
25.371

> <PUBCHEM_SHAPE_FINGERPRINT>
10863032 1 16009571612177545093
11680986 33 18050559651649697729
12035758 1 17688305681702721313
12592029 89 18413107242968102714
13149001 5 17759247288976917581
13681431 1 17839468786626008390
14178342 30 17979390695642545067
14181834 199 17913749644656741910
14648413 74 18122058694023522829
15309172 13 18268157624234682273
15375462 478 17750509748880138209
15490181 7 18272365373582219252
16945 1 18334018319547178945
19868273 325 17977380869331919892
20028762 73 17552371281588671951
20511035 2 18124305017648287445
20600515 1 16614145944663578443
21501502 16 18196662795941406873
21524375 3 18202289142589862286
23419403 2 16542939978453223944
23558518 356 18048875200564451765
23559900 14 18260554381006197367
2748010 2 18339084791396728956
3250762 1 18191316974501472363
350125 39 18050015398227453753
43471831 8 18410856594089614495
465052 167 17464554370151406915
7364860 26 18196648501736182398
81228 2 17551507077921879358
90525 40 18261672683390284264

> <PUBCHEM_SHAPE_MULTIPOLES>
374.29
4.69
4.01
1.43
0.75
3.99
-0.27
-2.76
-0.64
1.25
1.1
0.02
-0.03
0.71

> <PUBCHEM_SHAPE_SELFOVERLAP>
782.378

> <PUBCHEM_SHAPE_VOLUME>
209.2

> <PUBCHEM_COORDINATE_TYPE>
2
5
10

$$$$
