68799
  -OEChem-09252020593D

 33 34  0     0  0  0  0  0  0999 V2000
    5.8821    0.0186    0.2424 Br  0  0  0  0  0  0  0  0  0  0  0  0
   -2.6139   -2.9939    0.3082 N   0  0  0  0  0  0  0  0  0  0  0  0
   -2.2742    2.6533   -1.0178 N   0  0  0  0  0  0  0  0  0  0  0  0
   -0.2237   -0.3620   -0.2116 C   0  0  0  0  0  0  0  0  0  0  0  0
    1.2242   -0.2735   -0.1040 C   0  0  0  0  0  0  0  0  0  0  0  0
   -1.1294    0.8162   -0.0310 C   0  0  0  0  0  0  0  0  0  0  0  0
   -0.7897   -1.5737   -0.4934 C   0  0  0  0  0  0  0  0  0  0  0  0
   -2.2438   -1.9353   -0.6279 C   0  0  0  0  0  0  0  0  0  0  0  0
    1.8451   -0.4686    1.1295 C   0  0  0  0  0  0  0  0  0  0  0  0
    1.9914    0.0082   -1.2344 C   0  0  0  0  0  0  0  0  0  0  0  0
   -1.6079    1.1105    1.2160 C   0  0  0  0  0  0  0  0  0  0  0  0
   -1.4620    1.5767   -1.1117 C   0  0  0  0  0  0  0  0  0  0  0  0
    3.2334   -0.3819    1.2329 C   0  0  0  0  0  0  0  0  0  0  0  0
    3.3799    0.0948   -1.1312 C   0  0  0  0  0  0  0  0  0  0  0  0
    4.0009   -0.1004    0.1026 C   0  0  0  0  0  0  0  0  0  0  0  0
   -2.4467    2.2110    1.3528 C   0  0  0  0  0  0  0  0  0  0  0  0
   -4.0191   -3.3434    0.1635 C   0  0  0  0  0  0  0  0  0  0  0  0
   -2.7466    2.9433    0.2152 C   0  0  0  0  0  0  0  0  0  0  0  0
   -0.1142   -2.4191   -0.6397 H   0  0  0  0  0  0  0  0  0  0  0  0
   -2.8931   -1.0665   -0.4810 H   0  0  0  0  0  0  0  0  0  0  0  0
   -2.4002   -2.2837   -1.6562 H   0  0  0  0  0  0  0  0  0  0  0  0
    1.2619   -0.6891    2.0204 H   0  0  0  0  0  0  0  0  0  0  0  0
    1.5233    0.1630   -2.2036 H   0  0  0  0  0  0  0  0  0  0  0  0
   -1.3548    0.5155    2.0880 H   0  0  0  0  0  0  0  0  0  0  0  0
   -1.0986    1.3670   -2.1122 H   0  0  0  0  0  0  0  0  0  0  0  0
   -2.4546   -2.6699    1.2626 H   0  0  0  0  0  0  0  0  0  0  0  0
    3.7017   -0.5364    2.2015 H   0  0  0  0  0  0  0  0  0  0  0  0
    3.9631    0.3153   -2.0215 H   0  0  0  0  0  0  0  0  0  0  0  0
   -2.8532    2.4866    2.3191 H   0  0  0  0  0  0  0  0  0  0  0  0
   -4.2340   -3.7154   -0.8436 H   0  0  0  0  0  0  0  0  0  0  0  0
   -4.6711   -2.4900    0.3769 H   0  0  0  0  0  0  0  0  0  0  0  0
   -4.2703   -4.1418    0.8685 H   0  0  0  0  0  0  0  0  0  0  0  0
   -3.3965    3.8105    0.2685 H   0  0  0  0  0  0  0  0  0  0  0  0
  1 15  1  0  0  0  0
  2  8  1  0  0  0  0
  2 17  1  0  0  0  0
  2 26  1  0  0  0  0
  3 12  1  0  0  0  0
  3 18  2  0  0  0  0
  4  5  1  0  0  0  0
  4  6  1  0  0  0  0
  4  7  2  3  0  0  0
  5  9  2  0  0  0  0
  5 10  1  0  0  0  0
  6 11  1  0  0  0  0
  6 12  2  0  0  0  0
  7  8  1  0  0  0  0
  7 19  1  0  0  0  0
  8 20  1  0  0  0  0
  8 21  1  0  0  0  0
  9 13  1  0  0  0  0
  9 22  1  0  0  0  0
 10 14  2  0  0  0  0
 10 23  1  0  0  0  0
 11 16  2  0  0  0  0
 11 24  1  0  0  0  0
 12 25  1  0  0  0  0
 13 15  2  0  0  0  0
 13 27  1  0  0  0  0
 14 15  1  0  0  0  0
 14 28  1  0  0  0  0
 16 18  1  0  0  0  0
 16 29  1  0  0  0  0
 17 30  1  0  0  0  0
 17 31  1  0  0  0  0
 17 32  1  0  0  0  0
 18 33  1  0  0  0  0
M  END
> <PUBCHEM_COMPOUND_CID>
68799

> <PUBCHEM_CONFORMER_RMSD>
0.6

> <PUBCHEM_CONFORMER_DIVERSEORDER>
1
13
17
23
24
19
16
15
18
9
25
20
11
22
3
21
5
12
14
4
10
2
8
7
6

> <PUBCHEM_MMFF94_PARTIAL_CHARGES>
28
1 -0.11
10 -0.15
11 -0.15
12 0.16
13 -0.15
14 -0.15
15 0.11
16 -0.15
17 0.27
18 0.16
19 0.15
2 -0.9
22 0.15
23 0.15
24 0.15
25 0.15
26 0.36
27 0.15
28 0.15
29 0.15
3 -0.62
33 0.15
4 -0.06
5 0.03
6 0.03
7 -0.29
8 0.41
9 -0.15

> <PUBCHEM_EFFECTIVE_ROTOR_COUNT>
4

> <PUBCHEM_PHARMACOPHORE_FEATURES>
6
1 1 hydrophobe
1 2 cation
1 2 donor
1 3 acceptor
6 3 6 11 12 16 18 rings
6 5 9 10 13 14 15 rings

> <PUBCHEM_HEAVY_ATOM_COUNT>
18

> <PUBCHEM_ATOM_DEF_STEREO_COUNT>
0

> <PUBCHEM_ATOM_UDEF_STEREO_COUNT>
0

> <PUBCHEM_BOND_DEF_STEREO_COUNT>
0

> <PUBCHEM_BOND_UDEF_STEREO_COUNT>
1

> <PUBCHEM_ISOTOPIC_ATOM_COUNT>
0

> <PUBCHEM_COMPONENT_COUNT>
1

> <PUBCHEM_CACTVS_TAUTO_COUNT>
1

> <PUBCHEM_CONFORMER_ID>
00010CBF00000001

> <PUBCHEM_MMFF94_ENERGY>
54.593

> <PUBCHEM_FEATURE_SELFOVERLAP>
30.446

> <PUBCHEM_SHAPE_FINGERPRINT>
11265709 11 18264774448816253091
12251169 10 16081951234268410072
12788726 201 18264220273254203018
13140716 1 18268712886681875443
13583140 156 17773573019744904146
13675066 3 17749959839249072872
13681431 1 17692241255110408999
13764800 53 18060139803810299320
13955234 65 17186170765156333937
14178000 22 18192708947331992197
14178342 30 18410008815306989054
15309172 13 18121505656754608293
15885798 251 18196657508721075675
15906896 17 18114472167008117059
17357779 13 18058998610147498943
1741750 31 18271243803329542784
1813 80 18054520363422303095
18186145 218 17771911532493541740
19765921 60 17698427841978461337
200 152 17240759635688652258
20097449 115 18124312972260256131
20510252 161 18341327894075557018
20600515 1 17912661377459458103
20645477 56 18341616967176494276
21041028 32 18124602135507962527
21202864 24 18342188743334863777
21426921 1 18410291423906769230
21524375 3 17841422636063153565
22079108 93 17917155970841031217
22112679 90 18121809341296850319
22182313 1 17632309947356068734
22224240 67 18200041621360546601
23402539 116 18338794636359873206
23419403 2 17843102956529889425
23557571 272 18273496771548522820
25 1 17344347744261247328
283562 15 18336822091077645074
312423 11 18115600365022968028
5104073 3 18341321233499069034
59755656 520 18196935478682225805
6049 1 17775278413460067370
633830 44 17413313464304799605
6442390 28 17983316841132619009
68521 5 18338796818529962735
7164475 11 18335987553330630894
7615 1 18040439919022419100
81228 2 18412268358788304019
9981440 41 17057767821141625746

> <PUBCHEM_SHAPE_MULTIPOLES>
366.41
8.56
3.32
1.28
11.62
0.84
-0.06
1.73
-0.98
-7.48
-0.15
0.15
-0.41
-0.17

> <PUBCHEM_SHAPE_SELFOVERLAP>
760.722

> <PUBCHEM_SHAPE_VOLUME>
214.4

> <PUBCHEM_COORDINATE_TYPE>
2
5
10

$$$$
