130881
  -OEChem-09252020593D

 71 75  0     0  0  0  0  0  0999 V2000
    5.0711    0.6142    0.1776 O   0  0  0  0  0  0  0  0  0  0  0  0
    2.1691    1.1952   -0.9289 O   0  0  0  0  0  0  0  0  0  0  0  0
    2.8582   -0.0679   -2.7146 O   0  0  0  0  0  0  0  0  0  0  0  0
    2.6233    4.2961   -0.4005 O   0  0  0  0  0  0  0  0  0  0  0  0
    0.4934    5.1313    0.0291 O   0  0  0  0  0  0  0  0  0  0  0  0
    2.3489    6.1860    0.8702 O   0  0  0  0  0  0  0  0  0  0  0  0
    1.8542   -2.2120   -0.7012 N   0  0  0  0  0  0  0  0  0  0  0  0
    3.0823   -2.3328    1.1452 N   0  0  0  0  0  0  0  0  0  0  0  0
   -3.7008   -0.2390    2.8910 N   0  0  0  0  0  0  0  0  0  0  0  0
   -2.5248    0.9803    1.3882 N   0  0  0  0  0  0  0  0  0  0  0  0
   -2.5543    0.2622    3.3717 N   0  0  0  0  0  0  0  0  0  0  0  0
   -1.8246    0.9911    2.5159 N   0  0  0  0  0  0  0  0  0  0  0  0
    4.3348   -0.1817    1.1589 C   0  0  0  0  0  0  0  0  0  0  0  0
    3.3804   -1.1269    0.5757 C   0  0  0  0  0  0  0  0  0  0  0  0
    2.6104   -1.0752   -0.5624 C   0  0  0  0  0  0  0  0  0  0  0  0
    2.1619   -2.9484    0.3433 C   0  0  0  0  0  0  0  0  0  0  0  0
    0.9316   -2.5087   -1.7703 C   0  0  0  0  0  0  0  0  0  0  0  0
    1.5716   -4.2787    0.5961 C   0  0  0  0  0  0  0  0  0  0  0  0
    3.6855    0.8874    2.0919 C   0  0  0  0  0  0  0  0  0  0  0  0
    5.4678   -0.8815    1.9665 C   0  0  0  0  0  0  0  0  0  0  0  0
   -0.4556   -2.0213   -1.4497 C   0  0  0  0  0  0  0  0  0  0  0  0
    2.6246   -5.3239    1.0153 C   0  0  0  0  0  0  0  0  0  0  0  0
    2.5717    0.0263   -1.5256 C   0  0  0  0  0  0  0  0  0  0  0  0
   -0.8443   -0.7325   -1.8155 C   0  0  0  0  0  0  0  0  0  0  0  0
   -1.3529   -2.8588   -0.7871 C   0  0  0  0  0  0  0  0  0  0  0  0
    3.6741   -5.5562   -0.0600 C   0  0  0  0  0  0  0  0  0  0  0  0
   -3.0277   -1.1191   -0.8563 C   0  0  0  0  0  0  0  0  0  0  0  0
   -2.1303   -0.2815   -1.5188 C   0  0  0  0  0  0  0  0  0  0  0  0
   -2.6389   -2.4077   -0.4905 C   0  0  0  0  0  0  0  0  0  0  0  0
   -4.3619   -0.6518   -0.5494 C   0  0  0  0  0  0  0  0  0  0  0  0
    2.0923    2.3387   -1.7693 C   0  0  0  0  0  0  0  0  0  0  0  0
   -4.6521   -0.0014    0.6498 C   0  0  0  0  0  0  0  0  0  0  0  0
   -5.3707   -0.8654   -1.4888 C   0  0  0  0  0  0  0  0  0  0  0  0
    1.6467    3.5209   -0.9932 C   0  0  0  0  0  0  0  0  0  0  0  0
   -5.9511    0.4352    0.9099 C   0  0  0  0  0  0  0  0  0  0  0  0
   -6.6697   -0.4289   -1.2288 C   0  0  0  0  0  0  0  0  0  0  0  0
   -3.6389    0.2378    1.6450 C   0  0  0  0  0  0  0  0  0  0  0  0
    0.4426    3.9931   -0.7503 C   0  0  0  0  0  0  0  0  0  0  0  0
   -6.9600    0.2214   -0.0295 C   0  0  0  0  0  0  0  0  0  0  0  0
   -0.8964    3.5110   -1.1665 C   0  0  0  0  0  0  0  0  0  0  0  0
    1.8588    5.2731    0.2159 C   0  0  0  0  0  0  0  0  0  0  0  0
    0.9400   -3.5817   -1.9844 H   0  0  0  0  0  0  0  0  0  0  0  0
    1.2950   -2.0448   -2.6934 H   0  0  0  0  0  0  0  0  0  0  0  0
    1.0388   -4.6916   -0.2625 H   0  0  0  0  0  0  0  0  0  0  0  0
    0.8365   -4.1845    1.4046 H   0  0  0  0  0  0  0  0  0  0  0  0
    2.9746    1.5097    1.5389 H   0  0  0  0  0  0  0  0  0  0  0  0
    3.1468    0.4101    2.9177 H   0  0  0  0  0  0  0  0  0  0  0  0
    4.4377    1.5660    2.5100 H   0  0  0  0  0  0  0  0  0  0  0  0
    6.1951   -0.1573    2.3512 H   0  0  0  0  0  0  0  0  0  0  0  0
    6.0231   -1.5746    1.3231 H   0  0  0  0  0  0  0  0  0  0  0  0
    5.0646   -1.4489    2.8123 H   0  0  0  0  0  0  0  0  0  0  0  0
    2.1144   -6.2705    1.2291 H   0  0  0  0  0  0  0  0  0  0  0  0
    3.1198   -5.0119    1.9427 H   0  0  0  0  0  0  0  0  0  0  0  0
    5.6660    1.2172    0.6553 H   0  0  0  0  0  0  0  0  0  0  0  0
   -0.1646   -0.0719   -2.3447 H   0  0  0  0  0  0  0  0  0  0  0  0
   -1.0776   -3.8700   -0.5064 H   0  0  0  0  0  0  0  0  0  0  0  0
    4.2816   -4.6631   -0.2358 H   0  0  0  0  0  0  0  0  0  0  0  0
    4.3509   -6.3608    0.2452 H   0  0  0  0  0  0  0  0  0  0  0  0
    3.2083   -5.8487   -1.0065 H   0  0  0  0  0  0  0  0  0  0  0  0
   -2.4218    0.7224   -1.8170 H   0  0  0  0  0  0  0  0  0  0  0  0
   -3.3270   -3.0745    0.0241 H   0  0  0  0  0  0  0  0  0  0  0  0
    3.0758    2.5374   -2.2123 H   0  0  0  0  0  0  0  0  0  0  0  0
    1.3908    2.1397   -2.5881 H   0  0  0  0  0  0  0  0  0  0  0  0
   -5.1642   -1.3704   -2.4298 H   0  0  0  0  0  0  0  0  0  0  0  0
   -6.1984    0.9473    1.8370 H   0  0  0  0  0  0  0  0  0  0  0  0
   -7.4552   -0.5951   -1.9602 H   0  0  0  0  0  0  0  0  0  0  0  0
   -7.9714    0.5620    0.1723 H   0  0  0  0  0  0  0  0  0  0  0  0
   -1.4295    4.2954   -1.7128 H   0  0  0  0  0  0  0  0  0  0  0  0
   -0.8281    2.6371   -1.8192 H   0  0  0  0  0  0  0  0  0  0  0  0
   -1.4912    3.2362   -0.2903 H   0  0  0  0  0  0  0  0  0  0  0  0
   -2.2557    0.0986    4.3273 H   0  0  0  0  0  0  0  0  0  0  0  0
  1 13  1  0  0  0  0
  1 54  1  0  0  0  0
  2 23  1  0  0  0  0
  2 31  1  0  0  0  0
  3 23  2  0  0  0  0
  4 34  1  0  0  0  0
  4 41  1  0  0  0  0
  5 38  1  0  0  0  0
  5 41  1  0  0  0  0
  6 41  2  0  0  0  0
  7 15  1  0  0  0  0
  7 16  1  0  0  0  0
  7 17  1  0  0  0  0
  8 14  1  0  0  0  0
  8 16  2  0  0  0  0
  9 11  1  0  0  0  0
  9 37  2  0  0  0  0
 10 12  2  0  0  0  0
 10 37  1  0  0  0  0
 11 12  1  0  0  0  0
 11 71  1  0  0  0  0
 13 14  1  0  0  0  0
 13 19  1  0  0  0  0
 13 20  1  0  0  0  0
 14 15  2  0  0  0  0
 15 23  1  0  0  0  0
 16 18  1  0  0  0  0
 17 21  1  0  0  0  0
 17 42  1  0  0  0  0
 17 43  1  0  0  0  0
 18 22  1  0  0  0  0
 18 44  1  0  0  0  0
 18 45  1  0  0  0  0
 19 46  1  0  0  0  0
 19 47  1  0  0  0  0
 19 48  1  0  0  0  0
 20 49  1  0  0  0  0
 20 50  1  0  0  0  0
 20 51  1  0  0  0  0
 21 24  2  0  0  0  0
 21 25  1  0  0  0  0
 22 26  1  0  0  0  0
 22 52  1  0  0  0  0
 22 53  1  0  0  0  0
 24 28  1  0  0  0  0
 24 55  1  0  0  0  0
 25 29  2  0  0  0  0
 25 56  1  0  0  0  0
 26 57  1  0  0  0  0
 26 58  1  0  0  0  0
 26 59  1  0  0  0  0
 27 28  2  0  0  0  0
 27 29  1  0  0  0  0
 27 30  1  0  0  0  0
 28 60  1  0  0  0  0
 29 61  1  0  0  0  0
 30 32  1  0  0  0  0
 30 33  2  0  0  0  0
 31 34  1  0  0  0  0
 31 62  1  0  0  0  0
 31 63  1  0  0  0  0
 32 35  2  0  0  0  0
 32 37  1  0  0  0  0
 33 36  1  0  0  0  0
 33 64  1  0  0  0  0
 34 38  2  0  0  0  0
 35 39  1  0  0  0  0
 35 65  1  0  0  0  0
 36 39  2  0  0  0  0
 36 66  1  0  0  0  0
 38 40  1  0  0  0  0
 39 67  1  0  0  0  0
 40 68  1  0  0  0  0
 40 69  1  0  0  0  0
 40 70  1  0  0  0  0
M  END
> <PUBCHEM_COMPOUND_CID>
130881

> <PUBCHEM_CONFORMER_RMSD>
1.2

> <PUBCHEM_CONFORMER_DIVERSEORDER>
1
80
79
13
62
47
40
73
95
64
18
20
14
69
93
39
6
58
86
56
52
22
48
30
77
68
65
42
8
4
43
83
35
67
27
23
7
11
16
76
74
84
31
91
49
60
75
45
17
72
24
87
32
38
3
15
19
55
50
54
26
71
61
2
5
34
59
63
53
41
25
90
46
12
92
88
70
51
9
94
66
37
33
10
82
28
85
44
21
81
29
57
36
89
78

> <PUBCHEM_MMFF94_PARTIAL_CHARGES>
45
1 -0.68
10 -0.23
11 0.57
12 -0.42
13 0.46
14 0.05
15 -0.24
16 0.01
17 0.4
18 0.18
2 -0.43
21 -0.14
23 0.81
24 -0.15
25 -0.15
28 -0.15
29 -0.15
3 -0.57
31 0.42
32 0.05
33 -0.15
34 -0.06
35 -0.15
36 -0.15
37 0.46
38 -0.06
39 -0.15
4 -0.23
40 0.14
41 0.87
5 -0.23
54 0.4
55 0.15
56 0.15
6 -0.57
60 0.15
61 0.15
64 0.15
65 0.15
66 0.15
67 0.15
7 0.05
71 0.27
8 -0.57
9 -0.71

> <PUBCHEM_EFFECTIVE_ROTOR_COUNT>
11

> <PUBCHEM_PHARMACOPHORE_FEATURES>
12
1 1 acceptor
1 1 donor
1 26 hydrophobe
1 3 acceptor
3 13 19 20 hydrophobe
3 7 8 16 cation
3 9 10 37 cation
5 4 5 34 38 41 rings
5 7 8 14 15 16 rings
5 9 10 11 12 37 rings
6 21 24 25 27 28 29 rings
6 30 32 33 35 36 39 rings

> <PUBCHEM_HEAVY_ATOM_COUNT>
41

> <PUBCHEM_ATOM_DEF_STEREO_COUNT>
0

> <PUBCHEM_ATOM_UDEF_STEREO_COUNT>
0

> <PUBCHEM_BOND_DEF_STEREO_COUNT>
0

> <PUBCHEM_BOND_UDEF_STEREO_COUNT>
0

> <PUBCHEM_ISOTOPIC_ATOM_COUNT>
0

> <PUBCHEM_COMPONENT_COUNT>
1

> <PUBCHEM_CACTVS_TAUTO_COUNT>
6

> <PUBCHEM_CONFORMER_ID>
0001FF4100000001

> <PUBCHEM_MMFF94_ENERGY>
91.3752

> <PUBCHEM_FEATURE_SELFOVERLAP>
60.897

> <PUBCHEM_SHAPE_FINGERPRINT>
12156800 1 15890456805766119137
13965767 371 17914066295594896258
15200665 1 16890344403684798236
16112460 7 18269837678456208544
16993438 75 17329430545468931314
21133410 62 17973461076129923505
469060 322 18339910554683033611
9961470 85 17909257332684103344

> <PUBCHEM_SHAPE_MULTIPOLES>
778.66
11.98
7.5
2.43
15.77
6.83
-1.2
-4.31
-3.28
-11.17
0.16
0.63
0.16
-1.34

> <PUBCHEM_SHAPE_SELFOVERLAP>
1699.531

> <PUBCHEM_SHAPE_VOLUME>
428.2

> <PUBCHEM_COORDINATE_TYPE>
2
5
10

$$$$
