4627
  -OEChem-09252021003D

 50 53  0     1  0  0  0  0  0999 V2000
   -4.5102   -0.8585    1.3752 O   0  0  0  0  0  0  0  0  0  0  0  0
    0.4145   -1.3433   -0.9348 O   0  0  0  0  0  0  0  0  0  0  0  0
    1.3990   -2.3142    0.9070 O   0  0  0  0  0  0  0  0  0  0  0  0
    3.7825   -3.1450   -0.8060 O   0  0  0  0  0  0  0  0  0  0  0  0
   -2.8615    0.8978   -0.0858 N   0  3  0  0  0  0  0  0  0  0  0  0
   -2.2491    0.2754    1.2090 C   0  0  1  0  0  0  0  0  0  0  0  0
   -3.2558   -0.4403   -0.7881 C   0  0  2  0  0  0  0  0  0  0  0  0
   -3.0988   -0.9347    1.5700 C   0  0  2  0  0  0  0  0  0  0  0  0
   -3.7405   -1.3905    0.2978 C   0  0  1  0  0  0  0  0  0  0  0  0
   -0.8400   -0.2495    0.8457 C   0  0  0  0  0  0  0  0  0  0  0  0
   -1.9626   -1.0476   -1.3814 C   0  0  0  0  0  0  0  0  0  0  0  0
   -0.8647   -1.2788   -0.3132 C   0  0  0  0  0  0  0  0  0  0  0  0
   -1.8163    1.6867   -0.8952 C   0  0  0  0  0  0  0  0  0  0  0  0
   -3.9966    1.9029    0.1270 C   0  0  0  0  0  0  0  0  0  0  0  0
   -2.4662    2.2373   -2.1457 C   0  0  0  0  0  0  0  0  0  0  0  0
    1.4678   -1.6318   -0.1073 C   0  0  0  0  0  0  0  0  0  0  0  0
    2.7371   -0.9705   -0.6366 C   0  0  2  0  0  0  0  0  0  0  0  0
    3.9660   -1.8268   -0.2987 C   0  0  0  0  0  0  0  0  0  0  0  0
    2.8661    0.4542   -0.1210 C   0  0  0  0  0  0  0  0  0  0  0  0
    2.3123    1.4837   -0.8557 C   0  0  0  0  0  0  0  0  0  0  0  0
    3.5334    0.6775    1.0667 C   0  0  0  0  0  0  0  0  0  0  0  0
    2.4309    2.7907   -0.3830 C   0  0  0  0  0  0  0  0  0  0  0  0
    3.6519    1.9844    1.5395 C   0  0  0  0  0  0  0  0  0  0  0  0
    3.1007    3.0410    0.8145 C   0  0  0  0  0  0  0  0  0  0  0  0
   -2.2306    1.0442    1.9873 H   0  0  0  0  0  0  0  0  0  0  0  0
   -4.0208   -0.2366   -1.5428 H   0  0  0  0  0  0  0  0  0  0  0  0
   -2.6941   -1.6375    2.2790 H   0  0  0  0  0  0  0  0  0  0  0  0
   -3.8185   -2.4360    0.0504 H   0  0  0  0  0  0  0  0  0  0  0  0
   -0.1455    0.5754    0.6574 H   0  0  0  0  0  0  0  0  0  0  0  0
   -0.4260   -0.7397    1.7375 H   0  0  0  0  0  0  0  0  0  0  0  0
   -2.2037   -2.0272   -1.8191 H   0  0  0  0  0  0  0  0  0  0  0  0
   -1.5858   -0.4823   -2.2406 H   0  0  0  0  0  0  0  0  0  0  0  0
   -1.0631   -2.2694    0.1211 H   0  0  0  0  0  0  0  0  0  0  0  0
   -1.4652    2.5053   -0.2543 H   0  0  0  0  0  0  0  0  0  0  0  0
   -0.9397    1.1062   -1.1711 H   0  0  0  0  0  0  0  0  0  0  0  0
   -3.5785    2.8653    0.4366 H   0  0  0  0  0  0  0  0  0  0  0  0
   -4.5969    1.9751   -0.7832 H   0  0  0  0  0  0  0  0  0  0  0  0
   -4.6340    1.5306    0.9320 H   0  0  0  0  0  0  0  0  0  0  0  0
   -1.6818    2.6172   -2.8113 H   0  0  0  0  0  0  0  0  0  0  0  0
   -3.0246    1.4890   -2.7144 H   0  0  0  0  0  0  0  0  0  0  0  0
   -3.1170    3.0945   -1.9476 H   0  0  0  0  0  0  0  0  0  0  0  0
    2.6617   -0.9642   -1.7336 H   0  0  0  0  0  0  0  0  0  0  0  0
    4.1446   -1.9421    0.7738 H   0  0  0  0  0  0  0  0  0  0  0  0
    4.8711   -1.4109   -0.7540 H   0  0  0  0  0  0  0  0  0  0  0  0
    1.7870    1.2974   -1.7876 H   0  0  0  0  0  0  0  0  0  0  0  0
    3.9514   -0.1131    1.6775 H   0  0  0  0  0  0  0  0  0  0  0  0
    3.0964   -3.5787   -0.2712 H   0  0  0  0  0  0  0  0  0  0  0  0
    1.9998    3.6130   -0.9466 H   0  0  0  0  0  0  0  0  0  0  0  0
    4.1672    2.1794    2.4755 H   0  0  0  0  0  0  0  0  0  0  0  0
    3.1910    4.0584    1.1837 H   0  0  0  0  0  0  0  0  0  0  0  0
  1  8  1  0  0  0  0
  1  9  1  0  0  0  0
  2 12  1  0  0  0  0
  2 16  1  0  0  0  0
  3 16  2  0  0  0  0
  4 18  1  0  0  0  0
  4 47  1  0  0  0  0
  5  6  1  0  0  0  0
  5  7  1  0  0  0  0
  5 13  1  0  0  0  0
  5 14  1  0  0  0  0
  6  8  1  0  0  0  0
  6 10  1  0  0  0  0
  6 25  1  0  0  0  0
  7  9  1  0  0  0  0
  7 11  1  0  0  0  0
  7 26  1  0  0  0  0
  8  9  1  0  0  0  0
  8 27  1  0  0  0  0
  9 28  1  0  0  0  0
 10 12  1  0  0  0  0
 10 29  1  0  0  0  0
 10 30  1  0  0  0  0
 11 12  1  0  0  0  0
 11 31  1  0  0  0  0
 11 32  1  0  0  0  0
 12 33  1  0  0  0  0
 13 15  1  0  0  0  0
 13 34  1  0  0  0  0
 13 35  1  0  0  0  0
 14 36  1  0  0  0  0
 14 37  1  0  0  0  0
 14 38  1  0  0  0  0
 15 39  1  0  0  0  0
 15 40  1  0  0  0  0
 15 41  1  0  0  0  0
 16 17  1  0  0  0  0
 17 18  1  0  0  0  0
 17 19  1  0  0  0  0
 17 42  1  0  0  0  0
 18 43  1  0  0  0  0
 18 44  1  0  0  0  0
 19 20  2  0  0  0  0
 19 21  1  0  0  0  0
 20 22  1  0  0  0  0
 20 45  1  0  0  0  0
 21 23  2  0  0  0  0
 21 46  1  0  0  0  0
 22 24  2  0  0  0  0
 22 48  1  0  0  0  0
 23 24  1  0  0  0  0
 23 49  1  0  0  0  0
 24 50  1  0  0  0  0
M  CHG  1   5   1
M  END
> <PUBCHEM_COMPOUND_CID>
4627

> <PUBCHEM_CONFORMER_RMSD>
0.8

> <PUBCHEM_CONFORMER_DIVERSEORDER>
37
89
153
2
145
110
61
96
39
66
104
46
163
130
94
162
90
68
129
83
161
114
124
36
146
160
7
81
149
44
87
58
123
137
80
138
16
106
133
69
67
25
71
34
91
113
99
152
156
43
119
9
97
78
14
26
23
159
120
3
70
164
84
82
8
1
139
75
65
86
29
107
134
6
126
98
115
108
35
55
140
116
158
155
62
30
144
112
40
127
50
101
132
60
19
118
57
32
21
77
151
154
10
12
136
150
88
51
54
38
93
157
28
102
79
52
100
24
49
20
56
109
135
5
33
105
74
143
128
76
103
122
27
53
147
148
73
95
117
15
121
92
131
63
125
4
22
142
85
47
11
31
72
17
18
45
64
13
111
48
41
141
59
42

> <PUBCHEM_MMFF94_PARTIAL_CHARGES>
29
1 -0.3
12 0.28
13 0.5
14 0.5
16 0.66
17 0.2
18 0.28
19 -0.14
2 -0.43
20 -0.15
21 -0.15
22 -0.15
23 -0.15
24 -0.15
27 0.1
28 0.1
3 -0.57
4 -0.68
45 0.15
46 0.15
47 0.4
48 0.15
49 0.15
5 -1.01
50 0.15
6 0.6
7 0.6
8 -0.05
9 -0.05

> <PUBCHEM_EFFECTIVE_ROTOR_COUNT>
7

> <PUBCHEM_PHARMACOPHORE_FEATURES>
8
1 1 acceptor
1 3 acceptor
1 4 acceptor
1 4 donor
1 5 cation
6 1 5 6 7 8 9 rings
6 19 20 21 22 23 24 rings
8 5 6 7 8 9 10 11 12 rings

> <PUBCHEM_HEAVY_ATOM_COUNT>
24

> <PUBCHEM_ATOM_DEF_STEREO_COUNT>
0

> <PUBCHEM_ATOM_UDEF_STEREO_COUNT>
5

> <PUBCHEM_BOND_DEF_STEREO_COUNT>
0

> <PUBCHEM_BOND_UDEF_STEREO_COUNT>
0

> <PUBCHEM_ISOTOPIC_ATOM_COUNT>
0

> <PUBCHEM_COMPONENT_COUNT>
1

> <PUBCHEM_CACTVS_TAUTO_COUNT>
1

> <PUBCHEM_CONFORMER_ID>
0000121300000025

> <PUBCHEM_MMFF94_ENERGY>
101.3912

> <PUBCHEM_FEATURE_SELFOVERLAP>
44.134

> <PUBCHEM_SHAPE_FINGERPRINT>
10165383 225 18124334941028713120
10366900 7 17822018587805314419
1100329 8 16174809097180324940
11595378 159 16153710886430191949
11640471 11 17631731702860328612
12173636 292 17060347344192241715
12403259 226 18334299729756586310
12403814 3 18339356495928982643
12422481 6 18189919590398249833
12507557 5 18271524200179973466
12633257 1 17530676602326479113
12916754 54 18343582932511127703
13134695 92 18128532670517871830
13140716 1 18337951186328983201
13224815 77 18341613766977212625
13583140 156 18335978658353439095
14223421 5 18261111872182714487
15806764 133 18268160772419382158
17492 89 18342737433449158478
17980427 23 16629950054751034282
18981168 100 18262782013044228293
19930381 70 18197496444603934385
20681677 76 18336259072456844815
21524375 3 18126844030958063274
21864079 5 17417823828484127489
22749437 52 18341607174334632904
22854114 111 18271530883154165842
23227448 37 18270397321083754407
23557571 272 17749112222736058563
23559900 14 17894920611210591039
2838139 119 14834419151321338320
3187 122 17677042551356193813
350125 39 18411428301401815326
4409770 3 17400644823094956118
469060 322 17833540572274626871
474 4 18197777906795268138
49207404 50 18262524813238401560
5081480 168 16843353128098083132
508706 21 17968364637882184333
5104073 3 18410578370661370291
6049 1 18261396615550435742
6287921 2 18336556030727393196
6913067 236 18192695963988533235
7808743 9 17690284128909031584
9709674 26 18335136501128537909

> <PUBCHEM_SHAPE_MULTIPOLES>
465.45
8.68
3.3
1.54
0.51
0.56
0.02
0.6
-1.69
-3.05
0.52
0.71
0.38
1.87

> <PUBCHEM_SHAPE_SELFOVERLAP>
990.548

> <PUBCHEM_SHAPE_VOLUME>
259.2

> <PUBCHEM_COORDINATE_TYPE>
2
5
10

$$$$
