9882672
  -OEChem-09252021003D

 46 50  0     1  0  0  0  0  0999 V2000
   -0.1361    2.7121   -0.1736 O   0  0  0  0  0  0  0  0  0  0  0  0
   -3.9733   -0.8710    0.8176 N   0  0  0  0  0  0  0  0  0  0  0  0
   -0.6523    0.4930    0.3030 N   0  0  0  0  0  0  0  0  0  0  0  0
   -2.7840    0.6017   -0.9677 C   0  0  0  0  0  0  0  0  0  0  0  0
   -2.0863    0.7156    0.4025 C   0  0  1  0  0  0  0  0  0  0  0  0
   -2.7521   -0.2608    1.3934 C   0  0  0  0  0  0  0  0  0  0  0  0
   -2.8173   -0.8760   -1.3964 C   0  0  0  0  0  0  0  0  0  0  0  0
   -4.2427    1.0459   -0.7662 C   0  0  0  0  0  0  0  0  0  0  0  0
   -3.5784   -1.6978   -0.3437 C   0  0  0  0  0  0  0  0  0  0  0  0
   -4.8788    0.2025    0.3520 C   0  0  0  0  0  0  0  0  0  0  0  0
    1.0703   -1.2053   -0.1423 C   0  0  1  0  0  0  0  0  0  0  0  0
   -0.1526   -0.8248    0.6861 C   0  0  0  0  0  0  0  0  0  0  0  0
    2.1006   -0.1061   -0.0372 C   0  0  0  0  0  0  0  0  0  0  0  0
    1.6208   -2.5712    0.2798 C   0  0  0  0  0  0  0  0  0  0  0  0
    0.2178    1.5549    0.0405 C   0  0  0  0  0  0  0  0  0  0  0  0
    1.6706    1.2308    0.0227 C   0  0  0  0  0  0  0  0  0  0  0  0
    2.9320   -2.8469   -0.4478 C   0  0  0  0  0  0  0  0  0  0  0  0
    3.4782   -0.3947   -0.0592 C   0  0  0  0  0  0  0  0  0  0  0  0
    3.9895   -1.8142   -0.0622 C   0  0  0  0  0  0  0  0  0  0  0  0
    2.6048    2.2715    0.0599 C   0  0  0  0  0  0  0  0  0  0  0  0
    4.4020    0.6587   -0.0070 C   0  0  0  0  0  0  0  0  0  0  0  0
    3.9675    1.9822    0.0458 C   0  0  0  0  0  0  0  0  0  0  0  0
   -2.2915    1.2150   -1.7297 H   0  0  0  0  0  0  0  0  0  0  0  0
   -2.2301    1.7410    0.7700 H   0  0  0  0  0  0  0  0  0  0  0  0
   -2.1509   -1.0420    1.8599 H   0  0  0  0  0  0  0  0  0  0  0  0
   -3.0664    0.3317    2.2656 H   0  0  0  0  0  0  0  0  0  0  0  0
   -1.8075   -1.2691   -1.5470 H   0  0  0  0  0  0  0  0  0  0  0  0
   -3.3282   -0.9648   -2.3634 H   0  0  0  0  0  0  0  0  0  0  0  0
   -4.8063    0.9212   -1.6985 H   0  0  0  0  0  0  0  0  0  0  0  0
   -4.2838    2.1091   -0.5016 H   0  0  0  0  0  0  0  0  0  0  0  0
   -4.4715   -2.1484   -0.7953 H   0  0  0  0  0  0  0  0  0  0  0  0
   -2.9665   -2.5440   -0.0090 H   0  0  0  0  0  0  0  0  0  0  0  0
   -5.1567    0.8459    1.1963 H   0  0  0  0  0  0  0  0  0  0  0  0
   -5.8196   -0.2359   -0.0036 H   0  0  0  0  0  0  0  0  0  0  0  0
    0.7804   -1.2620   -1.2017 H   0  0  0  0  0  0  0  0  0  0  0  0
   -0.8840   -1.6105    0.4947 H   0  0  0  0  0  0  0  0  0  0  0  0
    0.0892   -0.7929    1.7559 H   0  0  0  0  0  0  0  0  0  0  0  0
    0.8931   -3.3559    0.0418 H   0  0  0  0  0  0  0  0  0  0  0  0
    1.7890   -2.6055    1.3641 H   0  0  0  0  0  0  0  0  0  0  0  0
    2.7624   -2.8184   -1.5318 H   0  0  0  0  0  0  0  0  0  0  0  0
    3.2948   -3.8526   -0.2076 H   0  0  0  0  0  0  0  0  0  0  0  0
    4.8371   -1.9037   -0.7523 H   0  0  0  0  0  0  0  0  0  0  0  0
    4.3591   -2.0405    0.9460 H   0  0  0  0  0  0  0  0  0  0  0  0
    2.2920    3.3109    0.1073 H   0  0  0  0  0  0  0  0  0  0  0  0
    5.4695    0.4513   -0.0047 H   0  0  0  0  0  0  0  0  0  0  0  0
    4.6934    2.7894    0.0821 H   0  0  0  0  0  0  0  0  0  0  0  0
  1 15  2  0  0  0  0
  2  6  1  0  0  0  0
  2  9  1  0  0  0  0
  2 10  1  0  0  0  0
  3  5  1  0  0  0  0
  3 12  1  0  0  0  0
  3 15  1  0  0  0  0
  4  5  1  0  0  0  0
  4  7  1  0  0  0  0
  4  8  1  0  0  0  0
  4 23  1  0  0  0  0
  5  6  1  0  0  0  0
  5 24  1  0  0  0  0
  6 25  1  0  0  0  0
  6 26  1  0  0  0  0
  7  9  1  0  0  0  0
  7 27  1  0  0  0  0
  7 28  1  0  0  0  0
  8 10  1  0  0  0  0
  8 29  1  0  0  0  0
  8 30  1  0  0  0  0
  9 31  1  0  0  0  0
  9 32  1  0  0  0  0
 10 33  1  0  0  0  0
 10 34  1  0  0  0  0
 11 12  1  0  0  0  0
 11 13  1  0  0  0  0
 11 14  1  0  0  0  0
 11 35  1  0  0  0  0
 12 36  1  0  0  0  0
 12 37  1  0  0  0  0
 13 16  1  0  0  0  0
 13 18  2  0  0  0  0
 14 17  1  0  0  0  0
 14 38  1  0  0  0  0
 14 39  1  0  0  0  0
 15 16  1  0  0  0  0
 16 20  2  0  0  0  0
 17 19  1  0  0  0  0
 17 40  1  0  0  0  0
 17 41  1  0  0  0  0
 18 19  1  0  0  0  0
 18 21  1  0  0  0  0
 19 42  1  0  0  0  0
 19 43  1  0  0  0  0
 20 22  1  0  0  0  0
 20 44  1  0  0  0  0
 21 22  2  0  0  0  0
 21 45  1  0  0  0  0
 22 46  1  0  0  0  0
M  END
> <PUBCHEM_COMPOUND_CID>
9882672

> <PUBCHEM_CONFORMER_RMSD>
0.6

> <PUBCHEM_CONFORMER_DIVERSEORDER>
1
11
7
2
5
9
6
4
8
3
10

> <PUBCHEM_MMFF94_PARTIAL_CHARGES>
20
1 -0.57
10 0.27
11 0.14
12 0.3
13 -0.14
15 0.54
16 0.09
18 -0.14
19 0.14
2 -0.81
20 -0.15
21 -0.15
22 -0.15
3 -0.66
44 0.15
45 0.15
46 0.15
5 0.3
6 0.27
9 0.27

> <PUBCHEM_EFFECTIVE_ROTOR_COUNT>
3.2

> <PUBCHEM_PHARMACOPHORE_FEATURES>
6
1 1 acceptor
1 2 cation
6 11 13 14 17 18 19 rings
6 13 16 18 20 21 22 rings
6 3 11 12 13 15 16 rings
8 2 4 5 6 7 8 9 10 rings

> <PUBCHEM_HEAVY_ATOM_COUNT>
22

> <PUBCHEM_ATOM_DEF_STEREO_COUNT>
0

> <PUBCHEM_ATOM_UDEF_STEREO_COUNT>
2

> <PUBCHEM_BOND_DEF_STEREO_COUNT>
0

> <PUBCHEM_BOND_UDEF_STEREO_COUNT>
0

> <PUBCHEM_ISOTOPIC_ATOM_COUNT>
0

> <PUBCHEM_COMPONENT_COUNT>
1

> <PUBCHEM_CACTVS_TAUTO_COUNT>
1

> <PUBCHEM_CONFORMER_ID>
0096CC3000000001

> <PUBCHEM_MMFF94_ENERGY>
66.3628

> <PUBCHEM_FEATURE_SELFOVERLAP>
30.513

> <PUBCHEM_SHAPE_FINGERPRINT>
10411042 1 18050569539345629082
10616163 171 18270399520017807007
10967382 1 18410577322921269434
11471102 20 18410292501927775216
11578080 2 17169537507436988870
116883 192 18194681471418958620
12107183 9 17767416686125364233
12236239 1 17775288266104526977
12553582 1 18050855420431095986
12596599 1 17917162640350066375
13140716 1 18267018552285446818
13224815 77 18412826888840368338
13533116 47 18201718453669564139
13631057 29 17699278082046483463
13944108 23 16169726080859595101
14223421 5 18337107848310322740
14790565 3 17977109277597599644
15196674 1 18410292531665446703
15375358 24 18260265256893140649
15375462 189 18060420230925707529
15536298 74 18342458136241522738
15788980 27 18334292067465994592
15961568 22 16878231969135491636
16945 1 18410859837311792176
17349148 13 18334570278663342376
17492 89 18412545396747962463
18186145 218 18342462572984996052
19591789 44 18195528331642948662
200 152 18201717371111062473
20645477 70 18410570669463254422
21033650 10 16154556354710348956
21267235 1 18340496568679776094
21421861 104 18043245739156781240
221490 88 18408890615954689810
22393880 68 18342177795157310206
23402539 116 18411975901553856740
23557571 272 17312820468237273925
23559900 14 18337386055017147410
2748010 2 18121231024187814258
2871803 45 18336828593900029012
3323516 105 18334016085863465731
335352 9 18194119616434083364
33824 294 18410011048694829104
34934 24 18412259519676809705
350125 39 18410291403049442504
3886686 26 10728356478494393756
46194498 28 17749670796160263805
474 4 18338800121206748104
5104073 3 18409450284626567667
5281201 14 18113057125212366541
543358 83 18340208466520814720
59755656 215 18409731742856009630
602551 16 15051723235571799084
6287921 2 18041848444577607805
633830 44 17967246507539206225
6443956 14 18409169874828606612
7364860 26 18413108342806479098
8272917 22 18412548699666567996
9709674 26 18333736840011815587

> <PUBCHEM_SHAPE_MULTIPOLES>
436.92
9.27
2.75
0.94
3.45
0.4
-0.01
0.4
-0.39
-2.77
-0.2
0.88
0.13
0.25

> <PUBCHEM_SHAPE_SELFOVERLAP>
965.953

> <PUBCHEM_SHAPE_VOLUME>
228.2

> <PUBCHEM_COORDINATE_TYPE>
2
5
10

$$$$
