60203
  -OEChem-09252021003D

 22 22  0     0  0  0  0  0  0999 V2000
    0.8518    2.6844    0.2381 Cl  0  0  0  0  0  0  0  0  0  0  0  0
   -3.5076   -0.5400    0.2188 Cl  0  0  0  0  0  0  0  0  0  0  0  0
    3.0697    0.8296    1.4566 Cl  0  0  0  0  0  0  0  0  0  0  0  0
    3.2676   -1.5171   -0.2049 Cl  0  0  0  0  0  0  0  0  0  0  0  0
    2.9138    1.0587   -1.4570 Cl  0  0  0  0  0  0  0  0  0  0  0  0
   -2.0523    2.0557    0.3390 O   0  0  0  0  0  0  0  0  0  0  0  0
   -1.4343   -2.6637   -0.0471 O   0  0  0  0  0  0  0  0  0  0  0  0
    0.4080   -1.2776   -0.0370 N   0  0  0  0  0  0  0  0  0  0  0  0
    0.9112   -0.0247    0.0310 C   0  0  0  0  0  0  0  0  0  0  0  0
   -1.2448    0.9624    0.2152 C   0  0  0  0  0  0  0  0  0  0  0  0
    0.1359    1.1167    0.1560 C   0  0  0  0  0  0  0  0  0  0  0  0
   -1.8000   -0.3106    0.1486 C   0  0  0  0  0  0  0  0  0  0  0  0
   -0.9379   -1.3882    0.0236 C   0  0  0  0  0  0  0  0  0  0  0  0
    2.4017    0.0602   -0.0387 C   0  0  0  0  0  0  0  0  0  0  0  0
   -2.4992    2.6682   -0.8676 C   0  0  0  0  0  0  0  0  0  0  0  0
   -0.4836   -3.7141   -0.1745 C   0  0  0  0  0  0  0  0  0  0  0  0
   -3.1233    3.5264   -0.6033 H   0  0  0  0  0  0  0  0  0  0  0  0
   -3.1004    1.9722   -1.4606 H   0  0  0  0  0  0  0  0  0  0  0  0
   -1.6534    3.0250   -1.4632 H   0  0  0  0  0  0  0  0  0  0  0  0
    0.1816   -3.7513    0.6949 H   0  0  0  0  0  0  0  0  0  0  0  0
    0.0900   -3.6161   -1.1024 H   0  0  0  0  0  0  0  0  0  0  0  0
   -1.0322   -4.6598   -0.2175 H   0  0  0  0  0  0  0  0  0  0  0  0
  1 11  1  0  0  0  0
  2 12  1  0  0  0  0
  3 14  1  0  0  0  0
  4 14  1  0  0  0  0
  5 14  1  0  0  0  0
  6 10  1  0  0  0  0
  6 15  1  0  0  0  0
  7 13  1  0  0  0  0
  7 16  1  0  0  0  0
  8  9  2  0  0  0  0
  8 13  1  0  0  0  0
  9 11  1  0  0  0  0
  9 14  1  0  0  0  0
 10 11  2  0  0  0  0
 10 12  1  0  0  0  0
 12 13  2  0  0  0  0
 15 17  1  0  0  0  0
 15 18  1  0  0  0  0
 15 19  1  0  0  0  0
 16 20  1  0  0  0  0
 16 21  1  0  0  0  0
 16 22  1  0  0  0  0
M  END
> <PUBCHEM_COMPOUND_CID>
60203

> <PUBCHEM_CONFORMER_RMSD>
0.6

> <PUBCHEM_CONFORMER_DIVERSEORDER>
1
2

> <PUBCHEM_MMFF94_PARTIAL_CHARGES>
16
1 -0.18
10 0.08
11 0.18
12 0.18
13 0.39
14 1.01
15 0.28
16 0.28
2 -0.18
3 -0.29
4 -0.29
5 -0.29
6 -0.36
7 -0.36
8 -0.62
9 0.17

> <PUBCHEM_EFFECTIVE_ROTOR_COUNT>
3

> <PUBCHEM_PHARMACOPHORE_FEATURES>
4
1 6 acceptor
1 7 acceptor
1 8 acceptor
6 8 9 10 11 12 13 rings

> <PUBCHEM_HEAVY_ATOM_COUNT>
16

> <PUBCHEM_ATOM_DEF_STEREO_COUNT>
0

> <PUBCHEM_ATOM_UDEF_STEREO_COUNT>
0

> <PUBCHEM_BOND_DEF_STEREO_COUNT>
0

> <PUBCHEM_BOND_UDEF_STEREO_COUNT>
0

> <PUBCHEM_ISOTOPIC_ATOM_COUNT>
0

> <PUBCHEM_COMPONENT_COUNT>
1

> <PUBCHEM_CACTVS_TAUTO_COUNT>
1

> <PUBCHEM_CONFORMER_ID>
0000EB2B00000001

> <PUBCHEM_MMFF94_ENERGY>
58.64

> <PUBCHEM_FEATURE_SELFOVERLAP>
20.347

> <PUBCHEM_SHAPE_FINGERPRINT>
1 1 17978785714426507693
10967382 1 18267305519955739899
11206711 2 18410856564330772909
12500047 106 18411129204812709608
12553582 1 17761780958599076922
13140716 1 17979352289353413137
13380535 76 18047468916232663937
13538477 17 18188770690255240718
14790565 3 18266766690940411121
14817 1 8406583159862424284
16752209 62 18408879625069751031
16945 1 18339079418386957344
17804303 29 18269272357912565290
18186145 218 18201441311708628832
193761 8 17619068769092887003
19591789 44 18339932502293340187
20510252 161 18272087179960860785
20559304 39 18335140938077830496
20645476 183 18188226311740420662
20711985 365 18409451358384429406
21041028 32 16398320045446429729
21524375 3 18263926531929574603
2334 1 18411139091236490363
23388829 49 16829802024941814435
23402539 116 18271231777168062615
23463225 33 18263649467768362330
23493267 7 17388554700046039984
23526114 1 16680350288450586572
23557571 272 17912932978474556152
23559900 14 18271254936533906716
23598291 2 17531250513531941692
25 1 17903913353790263877
2748010 2 18339364037369366965
352729 6 18266181617103103947
45790113 53 18409174307023430681
7364860 26 16756638330849019439
81228 2 18268145538312840371

> <PUBCHEM_SHAPE_MULTIPOLES>
321.9
5
3.62
0.98
0.96
1.65
0.03
-0.53
0.07
-1.67
0.44
0.76
-0.39
0.33

> <PUBCHEM_SHAPE_SELFOVERLAP>
622.147

> <PUBCHEM_SHAPE_VOLUME>
199.3

> <PUBCHEM_COORDINATE_TYPE>
2
5
10

$$$$
