4736
  -OEChem-09252021003D

 48 50  0     1  0  0  0  0  0999 V2000
   -5.0699   -1.2918   -1.2051 O   0  0  0  0  0  0  0  0  0  0  0  0
    1.6198    0.1170    0.1931 N   0  0  2  0  0  0  0  0  0  0  0  0
   -0.8982    1.3331   -0.6951 C   0  0  1  0  0  0  0  0  0  0  0  0
   -0.0513    1.8913    0.4899 C   0  0  2  0  0  0  0  0  0  0  0  0
    0.6742    0.7064    1.1653 C   0  0  1  0  0  0  0  0  0  0  0  0
    0.0921    0.6601   -1.6863 C   0  0  0  0  0  0  0  0  0  0  0  0
   -0.3562   -0.2665    1.7782 C   0  0  0  0  0  0  0  0  0  0  0  0
   -1.8850    0.2601   -0.2080 C   0  0  0  0  0  0  0  0  0  0  0  0
    0.9906   -0.3936   -1.0256 C   0  0  0  0  0  0  0  0  0  0  0  0
   -1.5969   -0.5016    0.9468 C   0  0  0  0  0  0  0  0  0  0  0  0
   -1.5955    2.5012   -1.4269 C   0  0  0  0  0  0  0  0  0  0  0  0
   -0.8470    2.7364    1.4979 C   0  0  0  0  0  0  0  0  0  0  0  0
    2.5174   -0.8719    0.7816 C   0  0  0  0  0  0  0  0  0  0  0  0
   -3.0591   -0.0356   -0.9245 C   0  0  0  0  0  0  0  0  0  0  0  0
   -2.4946   -1.4959    1.3723 C   0  0  0  0  0  0  0  0  0  0  0  0
   -3.9388   -1.0309   -0.4939 C   0  0  0  0  0  0  0  0  0  0  0  0
   -3.6589   -1.7582    0.6561 C   0  0  0  0  0  0  0  0  0  0  0  0
    3.6152   -1.2493   -0.1693 C   0  0  0  0  0  0  0  0  0  0  0  0
    4.8293   -0.6834   -0.3105 C   0  0  0  0  0  0  0  0  0  0  0  0
    5.8865   -1.1133   -1.2877 C   0  0  0  0  0  0  0  0  0  0  0  0
    5.2265    0.4865    0.5517 C   0  0  0  0  0  0  0  0  0  0  0  0
    0.7172    2.5663    0.0823 H   0  0  0  0  0  0  0  0  0  0  0  0
    1.2801    1.1104    1.9879 H   0  0  0  0  0  0  0  0  0  0  0  0
    0.7356    1.4319   -2.1319 H   0  0  0  0  0  0  0  0  0  0  0  0
   -0.4494    0.1929   -2.5194 H   0  0  0  0  0  0  0  0  0  0  0  0
   -0.6877    0.1517    2.7386 H   0  0  0  0  0  0  0  0  0  0  0  0
    0.1096   -1.2284    2.0182 H   0  0  0  0  0  0  0  0  0  0  0  0
    0.4181   -1.3076   -0.8257 H   0  0  0  0  0  0  0  0  0  0  0  0
    1.7412   -0.6612   -1.7784 H   0  0  0  0  0  0  0  0  0  0  0  0
   -0.8909    3.3179   -1.6233 H   0  0  0  0  0  0  0  0  0  0  0  0
   -1.9958    2.1938   -2.3995 H   0  0  0  0  0  0  0  0  0  0  0  0
   -2.4282    2.9082   -0.8426 H   0  0  0  0  0  0  0  0  0  0  0  0
   -0.2170    3.0064    2.3523 H   0  0  0  0  0  0  0  0  0  0  0  0
   -1.1833    3.6723    1.0404 H   0  0  0  0  0  0  0  0  0  0  0  0
   -1.7310    2.2204    1.8828 H   0  0  0  0  0  0  0  0  0  0  0  0
    2.9446   -0.5011    1.7201 H   0  0  0  0  0  0  0  0  0  0  0  0
    1.9824   -1.7914    1.0501 H   0  0  0  0  0  0  0  0  0  0  0  0
   -3.3024    0.5008   -1.8376 H   0  0  0  0  0  0  0  0  0  0  0  0
   -2.2841   -2.0740    2.2691 H   0  0  0  0  0  0  0  0  0  0  0  0
   -4.3351   -2.5343    1.0037 H   0  0  0  0  0  0  0  0  0  0  0  0
    3.3869   -2.0951   -0.8180 H   0  0  0  0  0  0  0  0  0  0  0  0
   -5.5600   -2.0084   -0.7666 H   0  0  0  0  0  0  0  0  0  0  0  0
    6.1222   -0.2989   -1.9800 H   0  0  0  0  0  0  0  0  0  0  0  0
    5.5586   -1.9729   -1.8815 H   0  0  0  0  0  0  0  0  0  0  0  0
    6.8007   -1.4010   -0.7589 H   0  0  0  0  0  0  0  0  0  0  0  0
    5.6352    1.2876   -0.0744 H   0  0  0  0  0  0  0  0  0  0  0  0
    6.0022    0.1810    1.2616 H   0  0  0  0  0  0  0  0  0  0  0  0
    4.4055    0.9315    1.1183 H   0  0  0  0  0  0  0  0  0  0  0  0
  1 16  1  0  0  0  0
  1 42  1  0  0  0  0
  2  5  1  0  0  0  0
  2  9  1  0  0  0  0
  2 13  1  0  0  0  0
  3  4  1  0  0  0  0
  3  6  1  0  0  0  0
  3  8  1  0  0  0  0
  3 11  1  0  0  0  0
  4  5  1  0  0  0  0
  4 12  1  0  0  0  0
  4 22  1  0  0  0  0
  5  7  1  0  0  0  0
  5 23  1  0  0  0  0
  6  9  1  0  0  0  0
  6 24  1  0  0  0  0
  6 25  1  0  0  0  0
  7 10  1  0  0  0  0
  7 26  1  0  0  0  0
  7 27  1  0  0  0  0
  8 10  2  0  0  0  0
  8 14  1  0  0  0  0
  9 28  1  0  0  0  0
  9 29  1  0  0  0  0
 10 15  1  0  0  0  0
 11 30  1  0  0  0  0
 11 31  1  0  0  0  0
 11 32  1  0  0  0  0
 12 33  1  0  0  0  0
 12 34  1  0  0  0  0
 12 35  1  0  0  0  0
 13 18  1  0  0  0  0
 13 36  1  0  0  0  0
 13 37  1  0  0  0  0
 14 16  2  0  0  0  0
 14 38  1  0  0  0  0
 15 17  2  0  0  0  0
 15 39  1  0  0  0  0
 16 17  1  0  0  0  0
 17 40  1  0  0  0  0
 18 19  2  0  0  0  0
 18 41  1  0  0  0  0
 19 20  1  0  0  0  0
 19 21  1  0  0  0  0
 20 43  1  0  0  0  0
 20 44  1  0  0  0  0
 20 45  1  0  0  0  0
 21 46  1  0  0  0  0
 21 47  1  0  0  0  0
 21 48  1  0  0  0  0
M  END
> <PUBCHEM_COMPOUND_CID>
4736

> <PUBCHEM_CONFORMER_RMSD>
0.6

> <PUBCHEM_CONFORMER_DIVERSEORDER>
2
23
53
55
15
31
21
37
36
29
45
38
10
41
44
52
40
48
32
28
6
34
46
49
39
25
42
17
54
35
56
1
43
20
51
24
8
33
30
50
3
12
7
13
27
47
5
11
16
19
22
18
26
4
9
14

> <PUBCHEM_MMFF94_PARTIAL_CHARGES>
22
1 -0.53
10 -0.14
13 0.41
14 -0.15
15 -0.15
16 0.08
17 -0.15
18 -0.29
19 -0.28
2 -0.81
20 0.14
21 0.14
3 0.14
38 0.15
39 0.15
40 0.15
41 0.15
42 0.45
5 0.27
7 0.14
8 -0.14
9 0.27

> <PUBCHEM_EFFECTIVE_ROTOR_COUNT>
3

> <PUBCHEM_PHARMACOPHORE_FEATURES>
6
1 1 donor
1 2 cation
3 19 20 21 hydrophobe
6 2 3 4 5 6 9 rings
6 3 4 5 7 8 10 rings
6 8 10 14 15 16 17 rings

> <PUBCHEM_HEAVY_ATOM_COUNT>
21

> <PUBCHEM_ATOM_DEF_STEREO_COUNT>
0

> <PUBCHEM_ATOM_UDEF_STEREO_COUNT>
3

> <PUBCHEM_BOND_DEF_STEREO_COUNT>
0

> <PUBCHEM_BOND_UDEF_STEREO_COUNT>
0

> <PUBCHEM_ISOTOPIC_ATOM_COUNT>
0

> <PUBCHEM_COMPONENT_COUNT>
1

> <PUBCHEM_CACTVS_TAUTO_COUNT>
3

> <PUBCHEM_CONFORMER_ID>
0000128000000002

> <PUBCHEM_MMFF94_ENERGY>
60.0023

> <PUBCHEM_FEATURE_SELFOVERLAP>
31.962

> <PUBCHEM_SHAPE_FINGERPRINT>
10366900 7 18408048407760361418
11315181 36 16298397855655722918
11578080 2 16341205063480129865
12035759 4 16660353766697053465
12788726 201 18041552542737002161
12916754 54 18059861619564442746
13134695 92 18128253583390399553
13544653 18 18342179989727420418
13675066 3 9150879591048993950
14420673 8 12319193789093502684
14787075 74 18339077219991390954
15061688 2 12540693704357473608
16945 1 17895459350654826505
17093844 174 10737581557286848398
17349148 13 15140681358964284090
17357779 13 18408878559796594255
1813 80 17346047748357450260
18222031 100 18060411447738945838
19784866 240 17917712457005776311
19784866 34 12396568616492828879
200 152 18408324384788458246
20600515 1 18265353822639861095
20871999 31 17822003190637195535
21069387 34 17987794254423649555
21637258 2 17489296499431830895
22224240 67 9943810002317227815
23175994 123 18341895225022019465
23402539 116 17894629236175812638
23419403 2 18267846428105960293
23557571 272 18339085887050934044
23559900 14 17822856506339950140
2748010 2 17388810066612325219
2838139 119 12973870516482416543
347723 3 15864063269717521047
465052 167 17346035683382729575
5283173 99 17530672212885435116
53917941 68 17241035497185305533
6786 2 16693603878969105593

> <PUBCHEM_SHAPE_MULTIPOLES>
421.32
9.46
2.19
1.66
11.89
1.32
0.07
-6.03
-3.02
-1.62
0.25
-0.42
0.31
0.64

> <PUBCHEM_SHAPE_SELFOVERLAP>
891.114

> <PUBCHEM_SHAPE_VOLUME>
235.2

> <PUBCHEM_COORDINATE_TYPE>
2
5
10

$$$$
