13105693
  -OEChem-09252021003D

 47 48  0     1  0  0  0  0  0999 V2000
   -0.1720    2.1712   -1.1429 O   0  0  0  0  0  0  0  0  0  0  0  0
    0.3770   -1.6099    2.6520 O   0  0  0  0  0  0  0  0  0  0  0  0
    0.1193   -1.8136    0.3963 O   0  0  0  0  0  0  0  0  0  0  0  0
    2.8651   -1.2021   -1.0506 O   0  0  0  0  0  0  0  0  0  0  0  0
    3.4459   -0.2727    0.9798 O   0  0  0  0  0  0  0  0  0  0  0  0
   -1.1134    0.6342    0.3383 N   0  0  0  0  0  0  0  0  0  0  0  0
   -1.1234   -0.1280    1.6100 C   0  0  1  0  0  0  0  0  0  0  0  0
   -2.5452   -0.6803    1.7939 C   0  0  0  0  0  0  0  0  0  0  0  0
    0.9791    1.7874    0.8890 C   0  0  2  0  0  0  0  0  0  0  0  0
   -2.2952    0.3104   -0.3691 C   0  0  0  0  0  0  0  0  0  0  0  0
   -3.1258   -0.4827    0.4279 C   0  0  0  0  0  0  0  0  0  0  0  0
    2.2555    2.1997    0.1466 C   0  0  0  0  0  0  0  0  0  0  0  0
   -0.1560    1.5505   -0.0790 C   0  0  0  0  0  0  0  0  0  0  0  0
    2.7499    1.1478   -0.8628 C   0  0  1  0  0  0  0  0  0  0  0  0
    0.5256    2.8756    1.8534 C   0  0  0  0  0  0  0  0  0  0  0  0
   -0.1551   -1.2659    1.4536 C   0  0  0  0  0  0  0  0  0  0  0  0
   -2.6822    0.6698   -1.6515 C   0  0  0  0  0  0  0  0  0  0  0  0
   -4.3529   -0.9338   -0.0329 C   0  0  0  0  0  0  0  0  0  0  0  0
    4.0104    1.6291   -1.5809 C   0  0  0  0  0  0  0  0  0  0  0  0
   -3.9151    0.2118   -2.1274 C   0  0  0  0  0  0  0  0  0  0  0  0
   -4.7441   -0.5851   -1.3251 C   0  0  0  0  0  0  0  0  0  0  0  0
    3.0676   -0.1705   -0.1804 C   0  0  0  0  0  0  0  0  0  0  0  0
    3.1275   -2.5086   -0.5290 C   0  0  0  0  0  0  0  0  0  0  0  0
    2.8573   -3.5342   -1.6092 C   0  0  0  0  0  0  0  0  0  0  0  0
   -0.8211    0.5010    2.4505 H   0  0  0  0  0  0  0  0  0  0  0  0
    1.2019    0.8927    1.4695 H   0  0  0  0  0  0  0  0  0  0  0  0
   -2.5674   -1.7305    2.1012 H   0  0  0  0  0  0  0  0  0  0  0  0
   -3.1030   -0.0729    2.5150 H   0  0  0  0  0  0  0  0  0  0  0  0
    2.0928    3.1482   -0.3828 H   0  0  0  0  0  0  0  0  0  0  0  0
    3.0435    2.3969    0.8860 H   0  0  0  0  0  0  0  0  0  0  0  0
    1.9739    0.9651   -1.6141 H   0  0  0  0  0  0  0  0  0  0  0  0
    1.2807    3.0397    2.6296 H   0  0  0  0  0  0  0  0  0  0  0  0
   -0.4182    2.6357    2.3511 H   0  0  0  0  0  0  0  0  0  0  0  0
    0.3743    3.8276    1.3308 H   0  0  0  0  0  0  0  0  0  0  0  0
   -2.0644    1.2770   -2.3016 H   0  0  0  0  0  0  0  0  0  0  0  0
   -5.0004   -1.5365    0.5949 H   0  0  0  0  0  0  0  0  0  0  0  0
    4.8291    1.8031   -0.8737 H   0  0  0  0  0  0  0  0  0  0  0  0
    4.3562    0.8849   -2.3066 H   0  0  0  0  0  0  0  0  0  0  0  0
    3.8189    2.5627   -2.1197 H   0  0  0  0  0  0  0  0  0  0  0  0
   -4.2357    0.4766   -3.1316 H   0  0  0  0  0  0  0  0  0  0  0  0
   -5.7002   -0.9268   -1.7119 H   0  0  0  0  0  0  0  0  0  0  0  0
    1.0134   -2.3519    2.5702 H   0  0  0  0  0  0  0  0  0  0  0  0
    2.4963   -2.7036    0.3430 H   0  0  0  0  0  0  0  0  0  0  0  0
    4.1791   -2.5692   -0.2258 H   0  0  0  0  0  0  0  0  0  0  0  0
    3.0590   -4.5461   -1.2470 H   0  0  0  0  0  0  0  0  0  0  0  0
    3.4810   -3.3421   -2.4885 H   0  0  0  0  0  0  0  0  0  0  0  0
    1.8150   -3.4783   -1.9400 H   0  0  0  0  0  0  0  0  0  0  0  0
  1 13  2  0  0  0  0
  2 16  1  0  0  0  0
  2 42  1  0  0  0  0
  3 16  2  0  0  0  0
  4 22  1  0  0  0  0
  4 23  1  0  0  0  0
  5 22  2  0  0  0  0
  6  7  1  0  0  0  0
  6 10  1  0  0  0  0
  6 13  1  0  0  0  0
  7  8  1  0  0  0  0
  7 16  1  0  0  0  0
  7 25  1  0  0  0  0
  8 11  1  0  0  0  0
  8 27  1  0  0  0  0
  8 28  1  0  0  0  0
  9 12  1  0  0  0  0
  9 13  1  0  0  0  0
  9 15  1  0  0  0  0
  9 26  1  0  0  0  0
 10 11  1  0  0  0  0
 10 17  2  0  0  0  0
 11 18  2  0  0  0  0
 12 14  1  0  0  0  0
 12 29  1  0  0  0  0
 12 30  1  0  0  0  0
 14 19  1  0  0  0  0
 14 22  1  0  0  0  0
 14 31  1  0  0  0  0
 15 32  1  0  0  0  0
 15 33  1  0  0  0  0
 15 34  1  0  0  0  0
 17 20  1  0  0  0  0
 17 35  1  0  0  0  0
 18 21  1  0  0  0  0
 18 36  1  0  0  0  0
 19 37  1  0  0  0  0
 19 38  1  0  0  0  0
 19 39  1  0  0  0  0
 20 21  2  0  0  0  0
 20 40  1  0  0  0  0
 21 41  1  0  0  0  0
 23 24  1  0  0  0  0
 23 43  1  0  0  0  0
 23 44  1  0  0  0  0
 24 45  1  0  0  0  0
 24 46  1  0  0  0  0
 24 47  1  0  0  0  0
M  END
> <PUBCHEM_COMPOUND_CID>
13105693

> <PUBCHEM_CONFORMER_RMSD>
1

> <PUBCHEM_CONFORMER_DIVERSEORDER>
1
63
68
34
59
57
116
20
61
25
94
123
51
117
149
133
60
162
151
87
129
85
82
93
148
120
98
55
13
139
103
4
46
56
36
111
80
89
142
106
153
24
83
32
30
158
144
47
74
26
48
118
99
135
43
127
70
76
121
132
29
49
102
161
28
2
7
64
81
150
67
101
58
69
137
100
18
86
38
146
155
130
154
78
9
33
17
79
27
77
15
109
156
75
62
88
122
138
54
42
11
136
164
21
92
41
128
53
3
115
107
52
165
160
12
14
72
84
65
125
91
6
143
73
44
113
50
5
16
22
31
166
140
35
134
147
96
104
66
108
37
124
10
39
40
110
112
95
45
8
159
71
152
163
157
105
97
23
145
19
141
126
90
119
131
114

> <PUBCHEM_MMFF94_PARTIAL_CHARGES>
25
1 -0.57
10 0.12
11 -0.14
13 0.57
14 0.06
16 0.66
17 -0.15
18 -0.15
2 -0.65
20 -0.15
21 -0.15
22 0.66
23 0.28
3 -0.57
35 0.15
36 0.15
4 -0.43
40 0.15
41 0.15
42 0.5
5 -0.57
6 -0.48
7 0.36
8 0.14
9 0.06

> <PUBCHEM_EFFECTIVE_ROTOR_COUNT>
8.6

> <PUBCHEM_PHARMACOPHORE_FEATURES>
9
1 1 acceptor
1 15 hydrophobe
1 19 hydrophobe
1 2 acceptor
1 3 acceptor
1 5 acceptor
3 2 3 16 anion
5 6 7 8 10 11 rings
6 10 11 17 18 20 21 rings

> <PUBCHEM_HEAVY_ATOM_COUNT>
24

> <PUBCHEM_ATOM_DEF_STEREO_COUNT>
0

> <PUBCHEM_ATOM_UDEF_STEREO_COUNT>
3

> <PUBCHEM_BOND_DEF_STEREO_COUNT>
0

> <PUBCHEM_BOND_UDEF_STEREO_COUNT>
0

> <PUBCHEM_ISOTOPIC_ATOM_COUNT>
0

> <PUBCHEM_COMPONENT_COUNT>
1

> <PUBCHEM_CACTVS_TAUTO_COUNT>
1

> <PUBCHEM_CONFORMER_ID>
00C7FA1D00000001

> <PUBCHEM_MMFF94_ENERGY>
60.704

> <PUBCHEM_FEATURE_SELFOVERLAP>
45.813

> <PUBCHEM_SHAPE_FINGERPRINT>
10498660 4 16805875277848606421
11640471 11 13767925732371285581
12553582 1 18131360729824392356
13383661 66 17053330441320668878
13911987 19 18051998071317119852
14251745 187 17968089863191449045
14251757 17 17967817123940802727
14659021 117 17618509783685437350
15848702 151 18341896277505421091
16945 1 18272370926943615784
17357779 13 18265344919294248582
1813 80 17132110260434437313
18186145 218 17821736009063764765
19930381 70 18340493261629038927
20626108 58 16917056785436911821
20645477 70 18408885169745890788
20905425 154 17898263057781297145
21285901 2 18186793686559706685
23526113 38 18259985989334688025
23557571 272 17695881381390449786
23559900 14 17821442478704931780
238 59 18337950207223853428
3323516 105 18334851758029881247
463206 1 18273210911041451502
474 4 11963386349449184509
495365 180 18127121103182313504
5262128 65 18194131724374431278
57527295 17 18343301470382304637
57527585 103 17175498999048124626
59682541 52 18199445759030129141
633830 44 18114752542441531545
70251023 43 18125729993160711191

> <PUBCHEM_SHAPE_MULTIPOLES>
459.58
7.73
3.04
2.16
3.21
1.09
0.45
2.46
-4.34
-4
-0.22
0.81
0.12
0.48

> <PUBCHEM_SHAPE_SELFOVERLAP>
961.627

> <PUBCHEM_SHAPE_VOLUME>
261.1

> <PUBCHEM_COORDINATE_TYPE>
2
5
10

$$$$
