4848
  -OEChem-09252021013D

 47 50  0     0  0  0  0  0  0999 V2000
    1.0224   -1.3931    1.4773 O   0  0  0  0  0  0  0  0  0  0  0  0
   -2.3065    1.3803   -2.9133 O   0  0  0  0  0  0  0  0  0  0  0  0
    2.8516    0.2604    0.6228 N   0  0  0  0  0  0  0  0  0  0  0  0
    5.2568   -0.1027   -0.9398 N   0  0  0  0  0  0  0  0  0  0  0  0
   -0.7316   -0.1584    0.5209 N   0  0  0  0  0  0  0  0  0  0  0  0
   -2.6346   -0.5525   -1.7500 N   0  0  0  0  0  0  0  0  0  0  0  0
   -1.4506   -2.2860    1.3145 N   0  0  0  0  0  0  0  0  0  0  0  0
    2.8530   -0.5608   -0.5940 C   0  0  0  0  0  0  0  0  0  0  0  0
    3.8661    1.3172    0.5285 C   0  0  0  0  0  0  0  0  0  0  0  0
    4.2412   -1.1588   -0.8471 C   0  0  0  0  0  0  0  0  0  0  0  0
    5.2544    0.7191    0.2767 C   0  0  0  0  0  0  0  0  0  0  0  0
    1.5276    0.8316    0.8620 C   0  0  0  0  0  0  0  0  0  0  0  0
    6.5806   -0.6749   -1.1772 C   0  0  0  0  0  0  0  0  0  0  0  0
    0.5759   -0.3389    1.0151 C   0  0  0  0  0  0  0  0  0  0  0  0
   -1.3762    1.1124    0.4839 C   0  0  0  0  0  0  0  0  0  0  0  0
   -1.6023   -1.2924    0.3919 C   0  0  0  0  0  0  0  0  0  0  0  0
   -2.1355    1.5540   -0.6001 C   0  0  0  0  0  0  0  0  0  0  0  0
   -2.4975   -1.4380   -0.6692 C   0  0  0  0  0  0  0  0  0  0  0  0
   -1.2615    1.9615    1.6042 C   0  0  0  0  0  0  0  0  0  0  0  0
   -2.3175    0.7808   -1.8381 C   0  0  0  0  0  0  0  0  0  0  0  0
   -2.7322    2.8283   -0.5741 C   0  0  0  0  0  0  0  0  0  0  0  0
   -3.2312   -2.6319   -0.7626 C   0  0  0  0  0  0  0  0  0  0  0  0
   -1.8629    3.2203    1.6311 C   0  0  0  0  0  0  0  0  0  0  0  0
   -2.5964    3.6564    0.5373 C   0  0  0  0  0  0  0  0  0  0  0  0
   -3.0969   -3.6275    0.1923 C   0  0  0  0  0  0  0  0  0  0  0  0
   -2.1961   -3.4064    1.2071 C   0  0  0  0  0  0  0  0  0  0  0  0
    2.5570    0.0433   -1.4635 H   0  0  0  0  0  0  0  0  0  0  0  0
    2.1603   -1.4066   -0.5553 H   0  0  0  0  0  0  0  0  0  0  0  0
    3.8997    1.8831    1.4673 H   0  0  0  0  0  0  0  0  0  0  0  0
    3.6193    2.0277   -0.2723 H   0  0  0  0  0  0  0  0  0  0  0  0
    4.2084   -1.7210   -1.7884 H   0  0  0  0  0  0  0  0  0  0  0  0
    4.4875   -1.8718   -0.0486 H   0  0  0  0  0  0  0  0  0  0  0  0
    5.5654    0.1283    1.1492 H   0  0  0  0  0  0  0  0  0  0  0  0
    5.9702    1.5430    0.1686 H   0  0  0  0  0  0  0  0  0  0  0  0
    1.5276    1.3952    1.8006 H   0  0  0  0  0  0  0  0  0  0  0  0
    1.2284    1.4893    0.0388 H   0  0  0  0  0  0  0  0  0  0  0  0
    6.5891   -1.2498   -2.1099 H   0  0  0  0  0  0  0  0  0  0  0  0
    6.8997   -1.3349   -0.3624 H   0  0  0  0  0  0  0  0  0  0  0  0
    7.3275    0.1186   -1.2907 H   0  0  0  0  0  0  0  0  0  0  0  0
   -0.7161    1.6393    2.4889 H   0  0  0  0  0  0  0  0  0  0  0  0
   -3.0545   -0.9482   -2.5882 H   0  0  0  0  0  0  0  0  0  0  0  0
   -3.3186    3.1879   -1.4169 H   0  0  0  0  0  0  0  0  0  0  0  0
   -3.9191   -2.7938   -1.5903 H   0  0  0  0  0  0  0  0  0  0  0  0
   -1.7602    3.8532    2.5074 H   0  0  0  0  0  0  0  0  0  0  0  0
   -3.0668    4.6349    0.5492 H   0  0  0  0  0  0  0  0  0  0  0  0
   -3.6679   -4.5461    0.1321 H   0  0  0  0  0  0  0  0  0  0  0  0
   -2.0333   -4.1466    1.9829 H   0  0  0  0  0  0  0  0  0  0  0  0
  1 14  2  0  0  0  0
  2 20  2  0  0  0  0
  3  8  1  0  0  0  0
  3  9  1  0  0  0  0
  3 12  1  0  0  0  0
  4 10  1  0  0  0  0
  4 11  1  0  0  0  0
  4 13  1  0  0  0  0
  5 14  1  0  0  0  0
  5 15  1  0  0  0  0
  5 16  1  0  0  0  0
  6 18  1  0  0  0  0
  6 20  1  0  0  0  0
  6 41  1  0  0  0  0
  7 16  1  0  0  0  0
  7 26  2  0  0  0  0
  8 10  1  0  0  0  0
  8 27  1  0  0  0  0
  8 28  1  0  0  0  0
  9 11  1  0  0  0  0
  9 29  1  0  0  0  0
  9 30  1  0  0  0  0
 10 31  1  0  0  0  0
 10 32  1  0  0  0  0
 11 33  1  0  0  0  0
 11 34  1  0  0  0  0
 12 14  1  0  0  0  0
 12 35  1  0  0  0  0
 12 36  1  0  0  0  0
 13 37  1  0  0  0  0
 13 38  1  0  0  0  0
 13 39  1  0  0  0  0
 15 17  1  0  0  0  0
 15 19  2  0  0  0  0
 16 18  2  0  0  0  0
 17 20  1  0  0  0  0
 17 21  2  0  0  0  0
 18 22  1  0  0  0  0
 19 23  1  0  0  0  0
 19 40  1  0  0  0  0
 21 24  1  0  0  0  0
 21 42  1  0  0  0  0
 22 25  2  0  0  0  0
 22 43  1  0  0  0  0
 23 24  2  0  0  0  0
 23 44  1  0  0  0  0
 24 45  1  0  0  0  0
 25 26  1  0  0  0  0
 25 46  1  0  0  0  0
 26 47  1  0  0  0  0
M  END
> <PUBCHEM_COMPOUND_CID>
4848

> <PUBCHEM_CONFORMER_RMSD>
0.8

> <PUBCHEM_CONFORMER_DIVERSEORDER>
1
22
23
12
8
20
11
10
14
17
19
16
3
6
4
9
21
7
15
5
18
13
2

> <PUBCHEM_MMFF94_PARTIAL_CHARGES>
34
1 -0.57
10 0.27
11 0.27
12 0.33
13 0.27
14 0.57
15 0.12
16 0.43
17 0.09
18 0.12
19 -0.15
2 -0.57
20 0.54
21 -0.15
22 -0.15
23 -0.15
24 -0.15
25 -0.15
26 0.16
3 -0.81
4 -0.81
40 0.15
41 0.37
42 0.15
43 0.15
44 0.15
45 0.15
46 0.15
47 0.15
5 -0.29
6 -0.55
7 -0.62
8 0.27
9 0.27

> <PUBCHEM_EFFECTIVE_ROTOR_COUNT>
4.6

> <PUBCHEM_PHARMACOPHORE_FEATURES>
10
1 1 acceptor
1 2 acceptor
1 3 cation
1 4 cation
1 6 donor
1 7 acceptor
6 15 17 19 21 23 24 rings
6 3 4 8 9 10 11 rings
6 7 16 18 22 25 26 rings
7 5 6 15 16 17 18 20 rings

> <PUBCHEM_HEAVY_ATOM_COUNT>
26

> <PUBCHEM_ATOM_DEF_STEREO_COUNT>
0

> <PUBCHEM_ATOM_UDEF_STEREO_COUNT>
0

> <PUBCHEM_BOND_DEF_STEREO_COUNT>
0

> <PUBCHEM_BOND_UDEF_STEREO_COUNT>
0

> <PUBCHEM_ISOTOPIC_ATOM_COUNT>
0

> <PUBCHEM_COMPONENT_COUNT>
1

> <PUBCHEM_CACTVS_TAUTO_COUNT>
2

> <PUBCHEM_CONFORMER_ID>
000012F000000001

> <PUBCHEM_MMFF94_ENERGY>
121.2803

> <PUBCHEM_FEATURE_SELFOVERLAP>
50.781

> <PUBCHEM_SHAPE_FINGERPRINT>
10254770 206 17256251441667786350
10764073 3 16768499471848779251
107951 10 18127698127917273477
11578080 2 14324764647779467889
121448 382 17894344510320374322
12156800 1 17766046875289531557
12173636 292 18265896856698425601
12788726 201 18411125931894883443
13583140 156 12757440487876645892
13994607 96 15430039833444857172
14114211 68 18045196282012759031
14347332 77 18410008858220011834
14713325 29 18342185452941898510
14955137 171 17975151026103494747
15463212 79 18189613847990685568
16994733 274 14997099472772855231
1813 80 17770241644882163063
21756936 100 18198629834727902624
22393880 68 18341335509812319118
22907989 373 18409734001391687412
23557571 272 18337945813540868312
23559900 14 18342166809042774312
266924 78 17469863503853532901
2748010 2 16961504749580917427
283562 15 18261956365969974010
3380486 145 17690004857002111306
394222 165 17028498714626169953
4058900 60 17834681500678752897
437815 12 18197776807595500351
44062 13 18271538498648334742
460360 51 17822564998472708178
469060 322 17023199240004363625
4921388 177 18411139121475471348
4938544 92 8935001439407603278
497634 4 18260839228033499836
531348 171 17677043543783659114
53917941 68 18337667504134779872
57262259 84 18339644550442189075
59755656 520 18265338317470552528
621550 5 17972601271248828731
70251023 43 17487877098766144093
7399639 24 17914046758305755152

> <PUBCHEM_SHAPE_MULTIPOLES>
498.42
9.61
4.21
1.81
22.45
0.14
0.77
1.81
3.69
-7.05
-1.42
-1.15
-0.36
0.85

> <PUBCHEM_SHAPE_SELFOVERLAP>
1085.303

> <PUBCHEM_SHAPE_VOLUME>
269

> <PUBCHEM_COORDINATE_TYPE>
2
5
10

$$$$
