4490793
  -OEChem-09252021013D

 61 63  0     1  0  0  0  0  0999 V2000
    0.9838    3.2090    1.5139 S   0  0  0  0  0  0  0  0  0  0  0  0
    0.9433    2.1868   -2.7496 O   0  0  0  0  0  0  0  0  0  0  0  0
    3.8705   -0.2465   -0.1000 O   0  0  0  0  0  0  0  0  0  0  0  0
    2.4069    0.0981    1.6544 O   0  0  0  0  0  0  0  0  0  0  0  0
   -3.0808    2.6418    0.7304 O   0  0  0  0  0  0  0  0  0  0  0  0
    3.2396   -2.4581    0.5972 O   0  0  0  0  0  0  0  0  0  0  0  0
    2.8349   -2.3546   -1.6656 O   0  0  0  0  0  0  0  0  0  0  0  0
    1.1998    1.5369   -0.4963 N   0  0  0  0  0  0  0  0  0  0  0  0
   -1.8551    1.7923   -1.0451 N   0  0  0  0  0  0  0  0  0  0  0  0
   -5.4071    1.7769   -0.4826 N   0  0  0  0  0  0  0  0  0  0  0  0
    0.1668    1.9602    0.4502 C   0  0  2  0  0  0  0  0  0  0  0  0
    2.6542    2.9981    0.7203 C   0  0  0  0  0  0  0  0  0  0  0  0
    2.5863    1.7076   -0.1269 C   0  0  1  0  0  0  0  0  0  0  0  0
   -0.6158    2.5085   -0.7544 C   0  0  1  0  0  0  0  0  0  0  0  0
    0.5875    2.0504   -1.6012 C   0  0  0  0  0  0  0  0  0  0  0  0
    3.7277    2.9668    1.8130 C   0  0  0  0  0  0  0  0  0  0  0  0
    2.8932    4.2244   -0.1768 C   0  0  0  0  0  0  0  0  0  0  0  0
    2.9226    0.4403    0.5991 C   0  0  0  0  0  0  0  0  0  0  0  0
   -3.0056    1.9213   -0.2636 C   0  0  0  0  0  0  0  0  0  0  0  0
   -4.1605    1.0565   -0.7569 C   0  0  1  0  0  0  0  0  0  0  0  0
    4.2982   -1.4950    0.4690 C   0  0  0  0  0  0  0  0  0  0  0  0
   -4.1284   -0.3103   -0.1051 C   0  0  0  0  0  0  0  0  0  0  0  0
    1.4826   -3.8216   -0.2550 C   0  0  0  0  0  0  0  0  0  0  0  0
   -3.4200   -1.3522   -0.7040 C   0  0  0  0  0  0  0  0  0  0  0  0
   -4.8066   -0.5272    1.0944 C   0  0  0  0  0  0  0  0  0  0  0  0
    2.5862   -2.8018   -0.5526 C   0  0  0  0  0  0  0  0  0  0  0  0
    2.1026   -5.0950    0.3353 C   0  0  0  0  0  0  0  0  0  0  0  0
    0.4776   -3.2086    0.7296 C   0  0  0  0  0  0  0  0  0  0  0  0
    0.7507   -4.1805   -1.5581 C   0  0  0  0  0  0  0  0  0  0  0  0
   -3.3902   -2.6109   -0.1036 C   0  0  0  0  0  0  0  0  0  0  0  0
   -4.7766   -1.7860    1.6948 C   0  0  0  0  0  0  0  0  0  0  0  0
   -4.0683   -2.8277    1.0956 C   0  0  0  0  0  0  0  0  0  0  0  0
   -0.2814    1.1184    0.9872 H   0  0  0  0  0  0  0  0  0  0  0  0
    3.1948    1.7998   -1.0344 H   0  0  0  0  0  0  0  0  0  0  0  0
   -0.7597    3.5946   -0.7853 H   0  0  0  0  0  0  0  0  0  0  0  0
    3.7947    3.9289    2.3352 H   0  0  0  0  0  0  0  0  0  0  0  0
    3.5396    2.2029    2.5743 H   0  0  0  0  0  0  0  0  0  0  0  0
    4.7137    2.7662    1.3779 H   0  0  0  0  0  0  0  0  0  0  0  0
    2.9031    5.1547    0.4036 H   0  0  0  0  0  0  0  0  0  0  0  0
    3.8642    4.1476   -0.6803 H   0  0  0  0  0  0  0  0  0  0  0  0
    2.1317    4.3287   -0.9569 H   0  0  0  0  0  0  0  0  0  0  0  0
   -1.8954    1.1664   -1.8461 H   0  0  0  0  0  0  0  0  0  0  0  0
   -4.0903    0.9402   -1.8457 H   0  0  0  0  0  0  0  0  0  0  0  0
    4.7256   -1.3144    1.4614 H   0  0  0  0  0  0  0  0  0  0  0  0
    5.0899   -1.9113   -0.1632 H   0  0  0  0  0  0  0  0  0  0  0  0
   -5.3992    2.6698   -0.9752 H   0  0  0  0  0  0  0  0  0  0  0  0
   -6.1934    1.2544   -0.8686 H   0  0  0  0  0  0  0  0  0  0  0  0
   -2.8862   -1.1968   -1.6376 H   0  0  0  0  0  0  0  0  0  0  0  0
   -5.3529    0.2665    1.5959 H   0  0  0  0  0  0  0  0  0  0  0  0
    2.8615   -5.5112   -0.3370 H   0  0  0  0  0  0  0  0  0  0  0  0
    2.5932   -4.8976    1.2951 H   0  0  0  0  0  0  0  0  0  0  0  0
    1.3416   -5.8648    0.5053 H   0  0  0  0  0  0  0  0  0  0  0  0
   -0.3613   -3.8885    0.9147 H   0  0  0  0  0  0  0  0  0  0  0  0
    0.9422   -2.9873    1.6971 H   0  0  0  0  0  0  0  0  0  0  0  0
    0.0718   -2.2666    0.3425 H   0  0  0  0  0  0  0  0  0  0  0  0
   -0.0486   -4.9082   -1.3780 H   0  0  0  0  0  0  0  0  0  0  0  0
    1.4381   -4.6134   -2.2940 H   0  0  0  0  0  0  0  0  0  0  0  0
    0.2974   -3.2935   -2.0160 H   0  0  0  0  0  0  0  0  0  0  0  0
   -2.8372   -3.4215   -0.5693 H   0  0  0  0  0  0  0  0  0  0  0  0
   -5.3009   -1.9542    2.6309 H   0  0  0  0  0  0  0  0  0  0  0  0
   -4.0434   -3.8073    1.5639 H   0  0  0  0  0  0  0  0  0  0  0  0
  1 11  1  0  0  0  0
  1 12  1  0  0  0  0
  2 15  2  0  0  0  0
  3 18  1  0  0  0  0
  3 21  1  0  0  0  0
  4 18  2  0  0  0  0
  5 19  2  0  0  0  0
  6 21  1  0  0  0  0
  6 26  1  0  0  0  0
  7 26  2  0  0  0  0
  8 11  1  0  0  0  0
  8 13  1  0  0  0  0
  8 15  1  0  0  0  0
  9 14  1  0  0  0  0
  9 19  1  0  0  0  0
  9 42  1  0  0  0  0
 10 20  1  0  0  0  0
 10 46  1  0  0  0  0
 10 47  1  0  0  0  0
 11 14  1  0  0  0  0
 11 33  1  0  0  0  0
 12 13  1  0  0  0  0
 12 16  1  0  0  0  0
 12 17  1  0  0  0  0
 13 18  1  0  0  0  0
 13 34  1  0  0  0  0
 14 15  1  0  0  0  0
 14 35  1  0  0  0  0
 16 36  1  0  0  0  0
 16 37  1  0  0  0  0
 16 38  1  0  0  0  0
 17 39  1  0  0  0  0
 17 40  1  0  0  0  0
 17 41  1  0  0  0  0
 19 20  1  0  0  0  0
 20 22  1  0  0  0  0
 20 43  1  0  0  0  0
 21 44  1  0  0  0  0
 21 45  1  0  0  0  0
 22 24  2  0  0  0  0
 22 25  1  0  0  0  0
 23 26  1  0  0  0  0
 23 27  1  0  0  0  0
 23 28  1  0  0  0  0
 23 29  1  0  0  0  0
 24 30  1  0  0  0  0
 24 48  1  0  0  0  0
 25 31  2  0  0  0  0
 25 49  1  0  0  0  0
 27 50  1  0  0  0  0
 27 51  1  0  0  0  0
 27 52  1  0  0  0  0
 28 53  1  0  0  0  0
 28 54  1  0  0  0  0
 28 55  1  0  0  0  0
 29 56  1  0  0  0  0
 29 57  1  0  0  0  0
 29 58  1  0  0  0  0
 30 32  2  0  0  0  0
 30 59  1  0  0  0  0
 31 32  1  0  0  0  0
 31 60  1  0  0  0  0
 32 61  1  0  0  0  0
M  END
> <PUBCHEM_COMPOUND_CID>
4490793

> <PUBCHEM_CONFORMER_RMSD>
1.6

> <PUBCHEM_CONFORMER_DIVERSEORDER>
1
37
48
18
66
79
13
28
32
60
16
23
40
56
10
57
71
47
21
26
4
78
36
58
35
63
68
64
14
20
7
45
34
12
67
80
8
50
65
24
70
42
73
15
81
52
82
31
55
6
54
77
2
27
3
72
11
5
69
17
33
75
39
74
43
62
30
76
41
19
83
59
22
61
9
53
38
49
44
25
46
51
29

> <PUBCHEM_MMFF94_PARTIAL_CHARGES>
35
1 -0.45
10 -0.99
11 0.44
12 0.23
13 0.36
14 0.28
15 0.58
18 0.66
19 0.57
2 -0.57
20 0.47
21 0.56
22 -0.14
23 0.06
24 -0.15
25 -0.15
26 0.66
3 -0.43
30 -0.15
31 -0.15
32 -0.15
4 -0.57
42 0.37
46 0.36
47 0.36
48 0.15
49 0.15
5 -0.57
59 0.15
6 -0.43
60 0.15
61 0.15
7 -0.57
8 -0.59
9 -0.65

> <PUBCHEM_EFFECTIVE_ROTOR_COUNT>
10.8

> <PUBCHEM_PHARMACOPHORE_FEATURES>
11
1 10 cation
1 10 donor
1 2 acceptor
1 4 acceptor
1 5 acceptor
1 7 acceptor
1 9 donor
3 12 16 17 hydrophobe
4 23 27 28 29 hydrophobe
6 22 24 25 30 31 32 rings
7 1 8 11 12 13 14 15 rings

> <PUBCHEM_HEAVY_ATOM_COUNT>
32

> <PUBCHEM_ATOM_DEF_STEREO_COUNT>
0

> <PUBCHEM_ATOM_UDEF_STEREO_COUNT>
4

> <PUBCHEM_BOND_DEF_STEREO_COUNT>
0

> <PUBCHEM_BOND_UDEF_STEREO_COUNT>
0

> <PUBCHEM_ISOTOPIC_ATOM_COUNT>
0

> <PUBCHEM_COMPONENT_COUNT>
1

> <PUBCHEM_CACTVS_TAUTO_COUNT>
2

> <PUBCHEM_CONFORMER_ID>
0044862900000001

> <PUBCHEM_MMFF94_ENERGY>
82.8724

> <PUBCHEM_FEATURE_SELFOVERLAP>
55.821

> <PUBCHEM_SHAPE_FINGERPRINT>
11513181 2 18200871915104521766
12422481 6 18193250070825676568
12788726 201 17402055491786467311
13122387 1 16753809764236003335
13383661 66 17911280270807111790
13402501 40 18265892450046285687
13533116 47 18342732984659286933
13583140 156 18058438975793454337
1361 2 17834113422529157531
14659021 117 17401482646560679706
14863182 85 18118411867294236388
150020 26 18337116751930612371
17974551 9 17485636062114512617
19301679 30 17970644098319315219
19311894 1 15746692224788612047
20764821 26 18267291204750978678
20775530 9 18335703810510824459
23559900 14 18410847772148154568
238918 7 18195809793555591506
3493558 16 8133619876182299868
4403749 210 17977075153771372232
463206 1 18120379748268153482
5047190 48 17977103792406709216
5081480 168 17057271876735983199
5309563 4 18054500310214203542
6287921 2 18411140281032426891
6433294 58 18411134697432198995
653340 110 17045415134352180248

> <PUBCHEM_SHAPE_MULTIPOLES>
612.24
9.69
7.01
1.65
10.31
6.33
-0.31
-1.18
2.98
-4.92
-0.43
-0.25
-0.45
1.72

> <PUBCHEM_SHAPE_SELFOVERLAP>
1271.837

> <PUBCHEM_SHAPE_VOLUME>
352.1

> <PUBCHEM_COORDINATE_TYPE>
2
5
10

$$$$
