44115
  -OEChem-09252021013D

 39 40  0     0  0  0  0  0  0999 V2000
   -4.0382   -4.4833    0.4303 Cl  0  0  0  0  0  0  0  0  0  0  0  0
   -3.8623    3.1971   -0.7311 F   0  0  0  0  0  0  0  0  0  0  0  0
    1.3146    2.2456    0.8364 O   0  0  0  0  0  0  0  0  0  0  0  0
    5.8667   -0.9013   -1.0438 O   0  0  0  0  0  0  0  0  0  0  0  0
    1.0297   -0.0723   -0.3657 N   0  0  0  0  0  0  0  0  0  0  0  0
    6.0495    0.1095    1.0133 N   0  0  0  0  0  0  0  0  0  0  0  0
    3.0935   -1.3031   -0.8217 C   0  0  0  0  0  0  0  0  0  0  0  0
    1.6031   -1.4102   -0.5212 C   0  0  0  0  0  0  0  0  0  0  0  0
   -0.2309    0.0717   -0.1487 C   0  0  0  0  0  0  0  0  0  0  0  0
    3.8701   -0.6241    0.3064 C   0  0  0  0  0  0  0  0  0  0  0  0
   -0.7758    1.4645   -0.0417 C   0  0  0  0  0  0  0  0  0  0  0  0
   -1.1764   -1.0598   -0.0053 C   0  0  0  0  0  0  0  0  0  0  0  0
    0.0284    2.4664    0.4432 C   0  0  0  0  0  0  0  0  0  0  0  0
   -2.0744    1.6712   -0.4415 C   0  0  0  0  0  0  0  0  0  0  0  0
   -1.8020   -1.5578   -1.1318 C   0  0  0  0  0  0  0  0  0  0  0  0
   -1.4066   -1.5854    1.2514 C   0  0  0  0  0  0  0  0  0  0  0  0
    5.3495   -0.5030   -0.0043 C   0  0  0  0  0  0  0  0  0  0  0  0
   -0.4972    3.7551    0.5345 C   0  0  0  0  0  0  0  0  0  0  0  0
   -2.6002    2.9599   -0.3502 C   0  0  0  0  0  0  0  0  0  0  0  0
   -2.6926   -2.6229   -0.9963 C   0  0  0  0  0  0  0  0  0  0  0  0
   -2.2970   -2.6505    1.3869 C   0  0  0  0  0  0  0  0  0  0  0  0
   -1.8116    4.0019    0.1378 C   0  0  0  0  0  0  0  0  0  0  0  0
   -2.9401   -3.1692    0.2631 C   0  0  0  0  0  0  0  0  0  0  0  0
    3.4981   -2.3080   -0.9941 H   0  0  0  0  0  0  0  0  0  0  0  0
    3.2379   -0.7411   -1.7532 H   0  0  0  0  0  0  0  0  0  0  0  0
    1.4640   -1.9987    0.3932 H   0  0  0  0  0  0  0  0  0  0  0  0
    1.1249   -1.9389   -1.3537 H   0  0  0  0  0  0  0  0  0  0  0  0
    3.4904    0.3876    0.4826 H   0  0  0  0  0  0  0  0  0  0  0  0
    3.7576   -1.1949    1.2357 H   0  0  0  0  0  0  0  0  0  0  0  0
   -2.7214    0.8989   -0.8375 H   0  0  0  0  0  0  0  0  0  0  0  0
   -1.6106   -1.1414   -2.1167 H   0  0  0  0  0  0  0  0  0  0  0  0
   -0.9085   -1.1860    2.1302 H   0  0  0  0  0  0  0  0  0  0  0  0
    0.1115    4.5714    0.9139 H   0  0  0  0  0  0  0  0  0  0  0  0
   -3.1853   -3.0177   -1.8810 H   0  0  0  0  0  0  0  0  0  0  0  0
   -2.4799   -3.0662    2.3744 H   0  0  0  0  0  0  0  0  0  0  0  0
   -2.2213    5.0051    0.2088 H   0  0  0  0  0  0  0  0  0  0  0  0
    1.4699    1.2941    0.9445 H   0  0  0  0  0  0  0  0  0  0  0  0
    7.0505    0.2587    0.9419 H   0  0  0  0  0  0  0  0  0  0  0  0
    5.5996    0.4315    1.8643 H   0  0  0  0  0  0  0  0  0  0  0  0
  1 23  1  0  0  0  0
  2 19  1  0  0  0  0
  3 13  1  0  0  0  0
  3 37  1  0  0  0  0
  4 17  2  0  0  0  0
  5  8  1  0  0  0  0
  5  9  2  0  0  0  0
  6 17  1  0  0  0  0
  6 38  1  0  0  0  0
  6 39  1  0  0  0  0
  7  8  1  0  0  0  0
  7 10  1  0  0  0  0
  7 24  1  0  0  0  0
  7 25  1  0  0  0  0
  8 26  1  0  0  0  0
  8 27  1  0  0  0  0
  9 11  1  0  0  0  0
  9 12  1  0  0  0  0
 10 17  1  0  0  0  0
 10 28  1  0  0  0  0
 10 29  1  0  0  0  0
 11 13  2  0  0  0  0
 11 14  1  0  0  0  0
 12 15  2  0  0  0  0
 12 16  1  0  0  0  0
 13 18  1  0  0  0  0
 14 19  2  0  0  0  0
 14 30  1  0  0  0  0
 15 20  1  0  0  0  0
 15 31  1  0  0  0  0
 16 21  2  0  0  0  0
 16 32  1  0  0  0  0
 18 22  2  0  0  0  0
 18 33  1  0  0  0  0
 19 22  1  0  0  0  0
 20 23  2  0  0  0  0
 20 34  1  0  0  0  0
 21 23  1  0  0  0  0
 21 35  1  0  0  0  0
 22 36  1  0  0  0  0
M  END
> <PUBCHEM_COMPOUND_CID>
44115

> <PUBCHEM_CONFORMER_RMSD>
0.8

> <PUBCHEM_CONFORMER_DIVERSEORDER>
1
59
68
56
24
64
26
12
41
37
75
45
40
16
72
65
33
54
50
15
44
2
58
19
43
47
28
63
20
52
32
51
18
70
61
22
8
14
17
46
31
66
5
49
69
3
10
4
27
21
60
34
39
57
67
38
73
25
62
13
35
53
11
71
7
23
48
42
30
6
29
55
9
36
74

> <PUBCHEM_MMFF94_PARTIAL_CHARGES>
32
1 -0.18
10 0.06
11 0.09
12 0.09
13 0.08
14 -0.15
15 -0.15
16 -0.15
17 0.57
18 -0.15
19 0.19
2 -0.19
20 -0.15
21 -0.15
22 -0.15
23 0.18
3 -0.53
30 0.15
31 0.15
32 0.15
33 0.15
34 0.15
35 0.15
36 0.15
37 0.45
38 0.37
39 0.37
4 -0.57
5 -0.7
6 -0.8
8 0.25
9 0.28

> <PUBCHEM_EFFECTIVE_ROTOR_COUNT>
6

> <PUBCHEM_PHARMACOPHORE_FEATURES>
6
1 3 donor
1 4 acceptor
1 5 acceptor
1 6 donor
6 11 13 14 18 19 22 rings
6 12 15 16 20 21 23 rings

> <PUBCHEM_HEAVY_ATOM_COUNT>
23

> <PUBCHEM_ATOM_DEF_STEREO_COUNT>
0

> <PUBCHEM_ATOM_UDEF_STEREO_COUNT>
0

> <PUBCHEM_BOND_DEF_STEREO_COUNT>
0

> <PUBCHEM_BOND_UDEF_STEREO_COUNT>
0

> <PUBCHEM_ISOTOPIC_ATOM_COUNT>
0

> <PUBCHEM_COMPONENT_COUNT>
1

> <PUBCHEM_CACTVS_TAUTO_COUNT>
8

> <PUBCHEM_CONFORMER_ID>
0000AC5300000001

> <PUBCHEM_MMFF94_ENERGY>
69.1912

> <PUBCHEM_FEATURE_SELFOVERLAP>
30.446

> <PUBCHEM_SHAPE_FINGERPRINT>
10411042 1 18266742578487420727
1100329 8 18409730660287315601
11056379 131 18338249210506015934
11101153 10 18191313874226681740
11578080 2 16915355905541862259
12035758 1 18340785766587635577
12788726 201 18334570222634037123
13052359 8 18336546006358107109
13140716 1 18340773744425709777
13899415 180 18194677300958631407
14787075 74 18056185878456384645
14790565 3 17838336276738825056
14844126 61 18410847759669175002
15042514 8 18410863152694202769
1813 80 18056499449939814102
19427546 20 18335710442436156612
20101258 96 18340210794435326034
20197701 30 17901385597874347469
20602899 9 15481805897711609788
21049683 271 17757844702644205038
21304303 282 17973977605965611540
21521721 280 18126003759240922433
21524375 3 17688877427770159414
23557571 272 18343028753107336710
23559900 14 17172919901631526543
283562 15 18334013917290525578
3091708 16 8772150594014886665
3759504 43 18189617129245745629
4258327 124 17823442443069239868
4409770 3 18335141956264596095
5309563 4 18194400224033881818
5486654 2 18267304223008083093
59755656 520 18119527626967513582
6138700 20 16466435881709671110
77188 2 18121785186300537839
9709674 26 18200594671165800342
9981440 41 17831584175884848369

> <PUBCHEM_SHAPE_MULTIPOLES>
446.22
8.94
5.96
1.08
17.06
4.7
0.08
-8.98
0.14
-8.37
0.48
-0.12
-0.45
1.4

> <PUBCHEM_SHAPE_SELFOVERLAP>
942.264

> <PUBCHEM_SHAPE_VOLUME>
250.7

> <PUBCHEM_COORDINATE_TYPE>
2
5
10

$$$$
