666418
  -OEChem-09252021013D

 24 24  0     0  0  0  0  0  0999 V2000
   -2.7733    2.2100   -0.6560 S   0  0  0  0  0  0  0  0  0  0  0  0
    0.9685   -1.6671   -0.2741 N   0  0  0  0  0  0  0  0  0  0  0  0
   -3.5217    0.2232    0.9399 N   0  0  0  0  0  0  0  0  0  0  0  0
    2.3537    0.2865   -0.6238 C   0  0  0  0  0  0  0  0  0  0  0  0
    3.0935    0.6180    0.6794 C   0  0  0  0  0  0  0  0  0  0  0  0
    1.0131   -0.3195   -0.3732 C   0  0  0  0  0  0  0  0  0  0  0  0
   -0.0947    0.5041   -0.2538 C   0  0  0  0  0  0  0  0  0  0  0  0
    4.4718    1.2035    0.4166 C   0  0  0  0  0  0  0  0  0  0  0  0
   -1.3276   -0.0936   -0.0174 C   0  0  0  0  0  0  0  0  0  0  0  0
   -1.4139   -1.4772    0.0908 C   0  0  0  0  0  0  0  0  0  0  0  0
   -0.2471   -2.2123   -0.0442 C   0  0  0  0  0  0  0  0  0  0  0  0
   -2.5224    0.7243    0.1157 C   0  0  0  0  0  0  0  0  0  0  0  0
    2.9559   -0.4150   -1.2156 H   0  0  0  0  0  0  0  0  0  0  0  0
    2.2513    1.1889   -1.2396 H   0  0  0  0  0  0  0  0  0  0  0  0
    2.5073    1.3315    1.2715 H   0  0  0  0  0  0  0  0  0  0  0  0
    3.1991   -0.2873    1.2897 H   0  0  0  0  0  0  0  0  0  0  0  0
    0.0291    1.5796   -0.3247 H   0  0  0  0  0  0  0  0  0  0  0  0
    5.0971    0.4986   -0.1405 H   0  0  0  0  0  0  0  0  0  0  0  0
    4.3996    2.1305   -0.1611 H   0  0  0  0  0  0  0  0  0  0  0  0
    4.9743    1.4302    1.3620 H   0  0  0  0  0  0  0  0  0  0  0  0
   -2.3494   -2.0019    0.2495 H   0  0  0  0  0  0  0  0  0  0  0  0
   -0.2611   -3.2950    0.0256 H   0  0  0  0  0  0  0  0  0  0  0  0
   -3.4371   -0.6375    1.4701 H   0  0  0  0  0  0  0  0  0  0  0  0
   -4.3853    0.7407    1.0691 H   0  0  0  0  0  0  0  0  0  0  0  0
  1 12  2  0  0  0  0
  2  6  2  0  0  0  0
  2 11  1  0  0  0  0
  3 12  1  0  0  0  0
  3 23  1  0  0  0  0
  3 24  1  0  0  0  0
  4  5  1  0  0  0  0
  4  6  1  0  0  0  0
  4 13  1  0  0  0  0
  4 14  1  0  0  0  0
  5  8  1  0  0  0  0
  5 15  1  0  0  0  0
  5 16  1  0  0  0  0
  6  7  1  0  0  0  0
  7  9  2  0  0  0  0
  7 17  1  0  0  0  0
  8 18  1  0  0  0  0
  8 19  1  0  0  0  0
  8 20  1  0  0  0  0
  9 10  1  0  0  0  0
  9 12  1  0  0  0  0
 10 11  2  0  0  0  0
 10 21  1  0  0  0  0
 11 22  1  0  0  0  0
M  END
> <PUBCHEM_COMPOUND_CID>
666418

> <PUBCHEM_CONFORMER_RMSD>
0.6

> <PUBCHEM_CONFORMER_DIVERSEORDER>
2
24
14
15
19
17
16
22
26
11
6
8
21
18
23
12
13
20
9
25
10
5
7
3
4
1

> <PUBCHEM_MMFF94_PARTIAL_CHARGES>
15
1 -0.38
10 -0.15
11 0.16
12 0.35
17 0.15
2 -0.62
21 0.15
22 0.15
23 0.37
24 0.37
3 -0.8
4 0.14
6 0.17
7 -0.15
9 0.09

> <PUBCHEM_EFFECTIVE_ROTOR_COUNT>
3

> <PUBCHEM_PHARMACOPHORE_FEATURES>
4
1 1 acceptor
1 2 acceptor
1 8 hydrophobe
6 2 6 7 9 10 11 rings

> <PUBCHEM_HEAVY_ATOM_COUNT>
12

> <PUBCHEM_ATOM_DEF_STEREO_COUNT>
0

> <PUBCHEM_ATOM_UDEF_STEREO_COUNT>
0

> <PUBCHEM_BOND_DEF_STEREO_COUNT>
0

> <PUBCHEM_BOND_UDEF_STEREO_COUNT>
0

> <PUBCHEM_ISOTOPIC_ATOM_COUNT>
0

> <PUBCHEM_COMPONENT_COUNT>
1

> <PUBCHEM_CACTVS_TAUTO_COUNT>
4

> <PUBCHEM_CONFORMER_ID>
000A2B3200000002

> <PUBCHEM_MMFF94_ENERGY>
28.6191

> <PUBCHEM_FEATURE_SELFOVERLAP>
20.297

> <PUBCHEM_SHAPE_FINGERPRINT>
10608611 8 18337672992770557709
11132069 177 18338809991315809995
11543360 7 15195274352692269188
12251169 10 18113899398690956380
13380535 76 18411698798468887519
14325111 11 18410575054624714172
14897335 6 18412538795266456478
15219456 202 18336548188022067445
15775835 57 18409447007640399208
16945 1 18261402177728457695
17834072 32 18409445899365627332
18186145 218 18131358470776953356
20281407 28 7997969081062851340
20510252 161 18270402814162212418
20645464 45 18201726188420432366
20645477 56 18341898545279827880
20871998 22 9006757805149075470
21028194 46 18410581647383702231
21040471 1 18409176493045980263
21524375 3 18341891909048920918
23402539 116 18126838524652234927
23500284 214 18201726175477573448
23559900 14 18130796668497646124
2748010 2 18118696426246869511
305870 269 18262512589846048362
3071541 12 17980763735924179798
53812653 166 18272371992227062152
6333449 129 18271523207768078423
7364860 26 18054227631146307918
81228 2 18052260892586095207

> <PUBCHEM_SHAPE_MULTIPOLES>
240.84
6.22
2.13
0.82
4.39
0.43
-0.03
-4.32
-1.38
-0.95
0.26
-0.07
-0.12
0.57

> <PUBCHEM_SHAPE_SELFOVERLAP>
478.788

> <PUBCHEM_SHAPE_VOLUME>
145.4

> <PUBCHEM_COORDINATE_TYPE>
2
5
10

$$$$
