4713288
  -OEChem-09252021023D

 62 64  0     1  0  0  0  0  0999 V2000
    1.1376    2.6859    0.6528 O   0  0  0  0  0  0  0  0  0  0  0  0
    4.7983    2.7962    0.6498 O   0  0  0  0  0  0  0  0  0  0  0  0
    4.1060    2.2497   -1.4521 O   0  0  0  0  0  0  0  0  0  0  0  0
   -4.9175    2.0104   -0.0314 O   0  0  0  0  0  0  0  0  0  0  0  0
   -3.4284    2.6355    1.6133 O   0  0  0  0  0  0  0  0  0  0  0  0
    2.0967    0.7969   -0.3188 N   0  0  0  0  0  0  0  0  0  0  0  0
   -1.3193    1.8831    0.1096 N   0  0  0  0  0  0  0  0  0  0  0  0
    3.3463    0.9584    0.4474 C   0  0  1  0  0  0  0  0  0  0  0  0
    1.9479   -0.3803   -1.1916 C   0  0  0  0  0  0  0  0  0  0  0  0
    3.2696   -0.9822   -1.6590 C   0  0  0  0  0  0  0  0  0  0  0  0
    4.1893   -0.2873    0.5536 C   0  0  0  0  0  0  0  0  0  0  0  0
    4.1656   -1.2354   -0.4817 C   0  0  0  0  0  0  0  0  0  0  0  0
   -0.2646    1.3969   -0.7629 C   0  0  2  0  0  0  0  0  0  0  0  0
    1.0446    1.6921   -0.0724 C   0  0  0  0  0  0  0  0  0  0  0  0
   -2.6349    1.6335   -0.4673 C   0  0  1  0  0  0  0  0  0  0  0  0
   -2.8703    0.1355   -0.7191 C   0  0  0  0  0  0  0  0  0  0  0  0
    5.0396   -0.4860    1.6486 C   0  0  0  0  0  0  0  0  0  0  0  0
    4.1053    2.0518   -0.2461 C   0  0  0  0  0  0  0  0  0  0  0  0
    4.9932   -2.3611   -0.4201 C   0  0  0  0  0  0  0  0  0  0  0  0
   -0.3068    2.0909   -2.1091 C   0  0  0  0  0  0  0  0  0  0  0  0
   -2.8285   -0.7542    0.5314 C   0  0  0  0  0  0  0  0  0  0  0  0
    5.8518   -1.6184    1.7122 C   0  0  0  0  0  0  0  0  0  0  0  0
    5.8298   -2.5536    0.6788 C   0  0  0  0  0  0  0  0  0  0  0  0
   -3.6716    2.1554    0.5138 C   0  0  0  0  0  0  0  0  0  0  0  0
   -3.1243   -2.2065    0.2542 C   0  0  0  0  0  0  0  0  0  0  0  0
   -4.4342   -2.6583    0.3139 C   0  0  0  0  0  0  0  0  0  0  0  0
   -2.0819   -3.0670   -0.0558 C   0  0  0  0  0  0  0  0  0  0  0  0
   -6.0038    2.4692    0.7795 C   0  0  0  0  0  0  0  0  0  0  0  0
   -4.7078   -4.0020    0.0578 C   0  0  0  0  0  0  0  0  0  0  0  0
   -2.3556   -4.4106   -0.3123 C   0  0  0  0  0  0  0  0  0  0  0  0
   -3.6685   -4.8781   -0.2555 C   0  0  0  0  0  0  0  0  0  0  0  0
   -7.3037    2.2395    0.0384 C   0  0  0  0  0  0  0  0  0  0  0  0
    3.0598    1.3022    1.4498 H   0  0  0  0  0  0  0  0  0  0  0  0
    1.3550   -0.1286   -2.0743 H   0  0  0  0  0  0  0  0  0  0  0  0
    1.3865   -1.1258   -0.6135 H   0  0  0  0  0  0  0  0  0  0  0  0
    3.0656   -1.9149   -2.1976 H   0  0  0  0  0  0  0  0  0  0  0  0
    3.7796   -0.3050   -2.3538 H   0  0  0  0  0  0  0  0  0  0  0  0
   -0.3513    0.3171   -0.8709 H   0  0  0  0  0  0  0  0  0  0  0  0
   -2.7782    2.2100   -1.3885 H   0  0  0  0  0  0  0  0  0  0  0  0
   -1.2074    2.8865    0.2597 H   0  0  0  0  0  0  0  0  0  0  0  0
   -2.1990   -0.2594   -1.4902 H   0  0  0  0  0  0  0  0  0  0  0  0
   -3.8669    0.0211   -1.1700 H   0  0  0  0  0  0  0  0  0  0  0  0
    5.0780    0.2420    2.4548 H   0  0  0  0  0  0  0  0  0  0  0  0
    4.9901   -3.0928   -1.2234 H   0  0  0  0  0  0  0  0  0  0  0  0
    0.6291    1.9518   -2.6620 H   0  0  0  0  0  0  0  0  0  0  0  0
   -1.1104    1.7095   -2.7472 H   0  0  0  0  0  0  0  0  0  0  0  0
   -0.4369    3.1751   -2.0050 H   0  0  0  0  0  0  0  0  0  0  0  0
   -3.5428   -0.3923    1.2817 H   0  0  0  0  0  0  0  0  0  0  0  0
   -1.8444   -0.6815    1.0120 H   0  0  0  0  0  0  0  0  0  0  0  0
    6.5079   -1.7678    2.5649 H   0  0  0  0  0  0  0  0  0  0  0  0
    6.4682   -3.4309    0.7273 H   0  0  0  0  0  0  0  0  0  0  0  0
    5.3033    3.5162    0.2153 H   0  0  0  0  0  0  0  0  0  0  0  0
   -5.2506   -1.9832    0.5544 H   0  0  0  0  0  0  0  0  0  0  0  0
   -1.0565   -2.7116   -0.1050 H   0  0  0  0  0  0  0  0  0  0  0  0
   -5.8792    3.5379    0.9863 H   0  0  0  0  0  0  0  0  0  0  0  0
   -6.0133    1.9140    1.7241 H   0  0  0  0  0  0  0  0  0  0  0  0
   -5.7302   -4.3658    0.1012 H   0  0  0  0  0  0  0  0  0  0  0  0
   -1.5464   -5.0925   -0.5569 H   0  0  0  0  0  0  0  0  0  0  0  0
   -3.8817   -5.9240   -0.4555 H   0  0  0  0  0  0  0  0  0  0  0  0
   -8.1575    2.5790    0.6314 H   0  0  0  0  0  0  0  0  0  0  0  0
   -7.3018    2.7737   -0.9175 H   0  0  0  0  0  0  0  0  0  0  0  0
   -7.4329    1.1768   -0.1918 H   0  0  0  0  0  0  0  0  0  0  0  0
  1 14  2  0  0  0  0
  2 18  1  0  0  0  0
  2 52  1  0  0  0  0
  3 18  2  0  0  0  0
  4 24  1  0  0  0  0
  4 28  1  0  0  0  0
  5 24  2  0  0  0  0
  6  8  1  0  0  0  0
  6  9  1  0  0  0  0
  6 14  1  0  0  0  0
  7 13  1  0  0  0  0
  7 15  1  0  0  0  0
  7 40  1  0  0  0  0
  8 11  1  0  0  0  0
  8 18  1  0  0  0  0
  8 33  1  0  0  0  0
  9 10  1  0  0  0  0
  9 34  1  0  0  0  0
  9 35  1  0  0  0  0
 10 12  1  0  0  0  0
 10 36  1  0  0  0  0
 10 37  1  0  0  0  0
 11 12  1  0  0  0  0
 11 17  2  0  0  0  0
 12 19  2  0  0  0  0
 13 14  1  0  0  0  0
 13 20  1  0  0  0  0
 13 38  1  0  0  0  0
 15 16  1  0  0  0  0
 15 24  1  0  0  0  0
 15 39  1  0  0  0  0
 16 21  1  0  0  0  0
 16 41  1  0  0  0  0
 16 42  1  0  0  0  0
 17 22  1  0  0  0  0
 17 43  1  0  0  0  0
 19 23  1  0  0  0  0
 19 44  1  0  0  0  0
 20 45  1  0  0  0  0
 20 46  1  0  0  0  0
 20 47  1  0  0  0  0
 21 25  1  0  0  0  0
 21 48  1  0  0  0  0
 21 49  1  0  0  0  0
 22 23  2  0  0  0  0
 22 50  1  0  0  0  0
 23 51  1  0  0  0  0
 25 26  2  0  0  0  0
 25 27  1  0  0  0  0
 26 29  1  0  0  0  0
 26 53  1  0  0  0  0
 27 30  2  0  0  0  0
 27 54  1  0  0  0  0
 28 32  1  0  0  0  0
 28 55  1  0  0  0  0
 28 56  1  0  0  0  0
 29 31  2  0  0  0  0
 29 57  1  0  0  0  0
 30 31  1  0  0  0  0
 30 58  1  0  0  0  0
 31 59  1  0  0  0  0
 32 60  1  0  0  0  0
 32 61  1  0  0  0  0
 32 62  1  0  0  0  0
M  END
> <PUBCHEM_COMPOUND_CID>
4713288

> <PUBCHEM_CONFORMER_RMSD>
1.2

> <PUBCHEM_CONFORMER_DIVERSEORDER>
15
65
3
147
185
184
44
211
224
19
276
235
150
7
14
222
149
201
127
182
91
144
124
60
178
58
240
270
191
139
28
118
9
90
132
206
164
52
218
192
70
41
227
275
274
162
179
203
111
64
59
133
117
180
277
273
221
170
141
231
89
39
84
87
82
94
23
213
17
154
223
202
245
142
237
137
156
158
79
263
228
81
1
35
123
125
194
188
193
74
247
212
130
100
104
146
46
71
186
165
257
161
55
34
69
152
241
220
255
62
239
109
121
262
169
88
106
101
98
50
207
49
40
256
140
138
22
159
54
102
258
114
268
75
80
199
233
30
10
108
107
173
190
105
32
120
254
198
16
47
31
25
183
115
27
160
229
86
208
189
76
42
63
219
96
197
264
99
103
238
128
250
53
66
92
196
151
214
29
172
33
119
135
171
176
266
6
51
209
93
78
217
230
20
246
112
67
174
26
175
61
24
36
131
145
155
12
232
244
11
272
126
166
267
261
85
225
253
8
259
168
205
13
2
45
4
38
195
163
136
148
48
249
243
77
269
21
122
72
251
153
37
57
73
215
210
43
97
157
56
204
167
5
129
177
18
226
248
200
113
236
116
143
68
134
271
83
95
181
242
234
187
252
110
265
260
216

> <PUBCHEM_MMFF94_PARTIAL_CHARGES>
40
1 -0.57
10 0.14
11 -0.14
12 -0.14
13 0.33
14 0.57
15 0.33
17 -0.15
18 0.66
19 -0.15
2 -0.65
21 0.14
22 -0.15
23 -0.15
24 0.66
25 -0.14
26 -0.15
27 -0.15
28 0.28
29 -0.15
3 -0.57
30 -0.15
31 -0.15
4 -0.43
40 0.36
43 0.15
44 0.15
5 -0.57
50 0.15
51 0.15
52 0.5
53 0.15
54 0.15
57 0.15
58 0.15
59 0.15
6 -0.66
7 -0.9
8 0.5
9 0.3

> <PUBCHEM_EFFECTIVE_ROTOR_COUNT>
11.8

> <PUBCHEM_PHARMACOPHORE_FEATURES>
10
1 1 acceptor
1 2 acceptor
1 3 acceptor
1 5 acceptor
1 7 cation
1 7 donor
3 2 3 18 anion
6 11 12 17 19 22 23 rings
6 25 26 27 29 30 31 rings
6 6 8 9 10 11 12 rings

> <PUBCHEM_HEAVY_ATOM_COUNT>
32

> <PUBCHEM_ATOM_DEF_STEREO_COUNT>
0

> <PUBCHEM_ATOM_UDEF_STEREO_COUNT>
3

> <PUBCHEM_BOND_DEF_STEREO_COUNT>
0

> <PUBCHEM_BOND_UDEF_STEREO_COUNT>
0

> <PUBCHEM_ISOTOPIC_ATOM_COUNT>
0

> <PUBCHEM_COMPONENT_COUNT>
1

> <PUBCHEM_CACTVS_TAUTO_COUNT>
1

> <PUBCHEM_CONFORMER_ID>
0047EB480000000F

> <PUBCHEM_MMFF94_ENERGY>
74.6951

> <PUBCHEM_FEATURE_SELFOVERLAP>
50.826

> <PUBCHEM_SHAPE_FINGERPRINT>
10050765 1 18411139173368610532
10622 236 18189324835325881851
11405975 8 18411139108743673616
11552529 35 18340769346389566212
12107183 9 18336261228599246306
12633257 1 18337954485217125484
12788726 201 18193280921265026963
13140716 1 18412260619415297476
13692114 37 18272083856336889495
14114206 34 14346340261082249798
14725015 67 17620762686767121647
14866123 147 18411138039930118491
15250474 111 18335135427650802370
15274700 34 18338250366290139843
15320294 125 17969777480407291618
15361156 5 17895204298580567204
15392192 29 18269841922062901166
16994733 274 15769219324603925161
17492 89 18337670918739515310
19141452 34 18408041788756932565
19301679 30 18192720157840810731
19958102 18 18335974303883751349
20775530 9 17908711966147261511
21703447 108 17839178859486261017
21859007 373 17825657864067381341
22122407 14 16128645349763190442
23559900 14 18342466911266313068
3383291 50 18341614764201208667
4073 2 18340485668379963000
5085150 59 18343298142283933671
5104073 3 18413666928836037160
513202 73 18189065338646105643
5309563 4 17692534833242078559
57527293 21 18040707096164394548
6201320 77 16808159075802573059

> <PUBCHEM_SHAPE_MULTIPOLES>
619.24
15.82
5.79
1.35
0.43
5.86
-0.15
0.85
4.7
8.02
0.03
-1.29
-0.43
-1.5

> <PUBCHEM_SHAPE_SELFOVERLAP>
1305.814

> <PUBCHEM_SHAPE_VOLUME>
345

> <PUBCHEM_COORDINATE_TYPE>
2
5
10

$$$$
