129228
  -OEChem-09252021023D

 25 26  0     0  0  0  0  0  0999 V2000
   -1.3962    2.2795   -0.8993 F   0  0  0  0  0  0  0  0  0  0  0  0
   -2.1272   -2.3436   -0.1035 F   0  0  0  0  0  0  0  0  0  0  0  0
    4.0480    1.7135    0.2923 O   0  0  0  0  0  0  0  0  0  0  0  0
    0.6577   -0.4713   -0.8313 N   0  0  0  0  0  0  0  0  0  0  0  0
    1.0677   -1.6379   -0.3418 N   0  0  0  0  0  0  0  0  0  0  0  0
    2.2668   -1.4200    0.1869 N   0  0  0  0  0  0  0  0  0  0  0  0
    4.7326   -0.3161    1.1113 N   0  0  0  0  0  0  0  0  0  0  0  0
   -0.6492   -0.3780   -1.4900 C   0  0  0  0  0  0  0  0  0  0  0  0
   -1.7354   -0.0403   -0.5249 C   0  0  0  0  0  0  0  0  0  0  0  0
    1.5418    0.5263   -0.6497 C   0  0  0  0  0  0  0  0  0  0  0  0
   -2.0572    1.2939   -0.2760 C   0  0  0  0  0  0  0  0  0  0  0  0
   -2.4294   -1.0587    0.1287 C   0  0  0  0  0  0  0  0  0  0  0  0
    2.5717   -0.0994    0.0069 C   0  0  0  0  0  0  0  0  0  0  0  0
   -3.0729    1.6099    0.6264 C   0  0  0  0  0  0  0  0  0  0  0  0
   -3.4450   -0.7426    1.0312 C   0  0  0  0  0  0  0  0  0  0  0  0
   -3.7668    0.5917    1.2799 C   0  0  0  0  0  0  0  0  0  0  0  0
    3.7930    0.4931    0.4531 C   0  0  0  0  0  0  0  0  0  0  0  0
   -0.8337   -1.3348   -1.9934 H   0  0  0  0  0  0  0  0  0  0  0  0
   -0.5616    0.3784   -2.2793 H   0  0  0  0  0  0  0  0  0  0  0  0
    1.3834    1.5434   -0.9801 H   0  0  0  0  0  0  0  0  0  0  0  0
   -3.3231    2.6487    0.8199 H   0  0  0  0  0  0  0  0  0  0  0  0
   -3.9849   -1.5356    1.5400 H   0  0  0  0  0  0  0  0  0  0  0  0
   -4.5576    0.8377    1.9825 H   0  0  0  0  0  0  0  0  0  0  0  0
    4.5705   -1.3051    1.2723 H   0  0  0  0  0  0  0  0  0  0  0  0
    5.6082    0.0702    1.4480 H   0  0  0  0  0  0  0  0  0  0  0  0
  1 11  1  0  0  0  0
  2 12  1  0  0  0  0
  3 17  2  0  0  0  0
  4  5  1  0  0  0  0
  4  8  1  0  0  0  0
  4 10  1  0  0  0  0
  5  6  2  0  0  0  0
  6 13  1  0  0  0  0
  7 17  1  0  0  0  0
  7 24  1  0  0  0  0
  7 25  1  0  0  0  0
  8  9  1  0  0  0  0
  8 18  1  0  0  0  0
  8 19  1  0  0  0  0
  9 11  2  0  0  0  0
  9 12  1  0  0  0  0
 10 13  2  0  0  0  0
 10 20  1  0  0  0  0
 11 14  1  0  0  0  0
 12 15  2  0  0  0  0
 13 17  1  0  0  0  0
 14 16  2  0  0  0  0
 14 21  1  0  0  0  0
 15 16  1  0  0  0  0
 15 22  1  0  0  0  0
 16 23  1  0  0  0  0
M  END
> <PUBCHEM_COMPOUND_CID>
129228

> <PUBCHEM_CONFORMER_RMSD>
0.6

> <PUBCHEM_CONFORMER_DIVERSEORDER>
1
23
11
14
20
21
9
15
5
18
13
24
19
22
4
10
16
17
3
8
6
7
12
2

> <PUBCHEM_MMFF94_PARTIAL_CHARGES>
23
1 -0.19
10 -0.3
11 0.19
12 0.19
13 0.14
14 -0.15
15 -0.15
16 -0.15
17 0.72
2 -0.19
20 0.15
21 0.15
22 0.15
23 0.15
24 0.37
25 0.37
3 -0.57
4 0.31
5 -0.42
6 -0.23
7 -0.8
8 0.4
9 -0.14

> <PUBCHEM_EFFECTIVE_ROTOR_COUNT>
3

> <PUBCHEM_PHARMACOPHORE_FEATURES>
4
1 3 acceptor
1 7 donor
5 4 5 6 10 13 rings
6 9 11 12 14 15 16 rings

> <PUBCHEM_HEAVY_ATOM_COUNT>
17

> <PUBCHEM_ATOM_DEF_STEREO_COUNT>
0

> <PUBCHEM_ATOM_UDEF_STEREO_COUNT>
0

> <PUBCHEM_BOND_DEF_STEREO_COUNT>
0

> <PUBCHEM_BOND_UDEF_STEREO_COUNT>
0

> <PUBCHEM_ISOTOPIC_ATOM_COUNT>
0

> <PUBCHEM_COMPONENT_COUNT>
1

> <PUBCHEM_CACTVS_TAUTO_COUNT>
2

> <PUBCHEM_CONFORMER_ID>
0001F8CC00000001

> <PUBCHEM_MMFF94_ENERGY>
26.4225

> <PUBCHEM_FEATURE_SELFOVERLAP>
20.297

> <PUBCHEM_SHAPE_FINGERPRINT>
10498660 4 14333127412718479025
11127187 94 8142080957861255961
11132069 177 18411707590467032221
11137873 295 11386365915715199289
11265709 11 17839740701617935167
11543360 7 9295282855176371458
12251169 10 18410017645411258741
12363563 72 13840268082719897734
12382932 28 18410299090333721769
12507560 40 18339645516561943286
12633257 1 18411420609152532864
13296909 8 18259981574303311477
13693222 15 17894630374394841484
13764800 53 17704080581379804761
13897977 13 18342459287166501785
15775835 57 17988925565260843249
16945 1 18335994111840358127
17870717 6 11097846350857038976
18186145 218 14836127701848051350
19050596 39 18334013904178159560
19862831 5 11024110932108233908
200 152 18263911289217664359
20361792 2 15140972759209768791
20645476 183 12967126086693503789
20671657 53 11314030171147672782
20871999 31 9223234048156221443
21065199 12 18335987480068000586
21650355 55 18260271880091433145
22646028 28 13912326780532752936
23175994 123 16840255700325599175
23402539 116 18341885334161048223
23402655 69 10807946950329984594
23403322 49 11891327655825834360
27216 239 17775281694530264185
2748010 2 17974296426015211821
3009799 131 18334286605391434751
3082319 5 10375869671271114378
4921388 177 12967121748549733597
5262128 65 9222937197275985387
7097593 13 18260824839713813562
90316 7 18113625555945412861
9882013 296 17822293526231846220

> <PUBCHEM_SHAPE_MULTIPOLES>
309.51
7.9
1.89
1.14
6.06
0.04
-0.05
1.65
3.9
-0.75
-0.11
-0.31
0.06
0.06

> <PUBCHEM_SHAPE_SELFOVERLAP>
668.312

> <PUBCHEM_SHAPE_VOLUME>
170.4

> <PUBCHEM_COORDINATE_TYPE>
2
5
10

$$$$
