5195
  -OEChem-09252021033D

 31 31  0     1  0  0  0  0  0999 V2000
   -2.0364   -0.0372    0.6196 N   0  0  2  0  0  0  0  0  0  0  0  0
   -0.6660    0.4760    0.5324 C   0  0  1  0  0  0  0  0  0  0  0  0
    0.1369   -0.3694   -0.4730 C   0  0  0  0  0  0  0  0  0  0  0  0
   -0.7293    1.9517    0.1379 C   0  0  0  0  0  0  0  0  0  0  0  0
    1.6315   -0.2877   -0.2739 C   0  0  0  0  0  0  0  0  0  0  0  0
   -2.6926    0.0430   -0.6836 C   0  0  0  0  0  0  0  0  0  0  0  0
   -2.7943    0.7068    1.6232 C   0  0  0  0  0  0  0  0  0  0  0  0
    2.3523    0.6922   -0.9378 C   0  0  0  0  0  0  0  0  0  0  0  0
    2.2549   -1.1936    0.5694 C   0  0  0  0  0  0  0  0  0  0  0  0
    3.7329    0.7680   -0.7539 C   0  0  0  0  0  0  0  0  0  0  0  0
    3.6356   -1.1177    0.7533 C   0  0  0  0  0  0  0  0  0  0  0  0
    4.3744   -0.1368    0.0916 C   0  0  0  0  0  0  0  0  0  0  0  0
   -4.0456   -0.5185   -0.6242 C   0  0  0  0  0  0  0  0  0  0  0  0
   -5.1545   -0.9769   -0.5811 C   0  0  0  0  0  0  0  0  0  0  0  0
   -0.1953    0.3889    1.5207 H   0  0  0  0  0  0  0  0  0  0  0  0
   -0.0832   -0.0835   -1.5102 H   0  0  0  0  0  0  0  0  0  0  0  0
   -0.1469   -1.4286   -0.3909 H   0  0  0  0  0  0  0  0  0  0  0  0
   -1.3358    2.5753    0.7995 H   0  0  0  0  0  0  0  0  0  0  0  0
   -1.0383    2.1223   -0.8977 H   0  0  0  0  0  0  0  0  0  0  0  0
    0.2786    2.3787    0.2121 H   0  0  0  0  0  0  0  0  0  0  0  0
   -2.7911    1.0663   -1.0611 H   0  0  0  0  0  0  0  0  0  0  0  0
   -2.1624   -0.5379   -1.4451 H   0  0  0  0  0  0  0  0  0  0  0  0
   -2.2092    0.8568    2.5388 H   0  0  0  0  0  0  0  0  0  0  0  0
   -3.6690    0.1261    1.9395 H   0  0  0  0  0  0  0  0  0  0  0  0
   -3.1633    1.6806    1.2823 H   0  0  0  0  0  0  0  0  0  0  0  0
    1.8637    1.4001   -1.6011 H   0  0  0  0  0  0  0  0  0  0  0  0
    1.6880   -1.9591    1.0913 H   0  0  0  0  0  0  0  0  0  0  0  0
    4.3084    1.5313   -1.2695 H   0  0  0  0  0  0  0  0  0  0  0  0
    4.1353   -1.8217    1.4123 H   0  0  0  0  0  0  0  0  0  0  0  0
    5.4494   -0.0777    0.2350 H   0  0  0  0  0  0  0  0  0  0  0  0
   -6.1381   -1.3833   -0.5422 H   0  0  0  0  0  0  0  0  0  0  0  0
  1  2  1  0  0  0  0
  1  6  1  0  0  0  0
  1  7  1  0  0  0  0
  2  3  1  0  0  0  0
  2  4  1  0  0  0  0
  2 15  1  0  0  0  0
  3  5  1  0  0  0  0
  3 16  1  0  0  0  0
  3 17  1  0  0  0  0
  4 18  1  0  0  0  0
  4 19  1  0  0  0  0
  4 20  1  0  0  0  0
  5  8  2  0  0  0  0
  5  9  1  0  0  0  0
  6 13  1  0  0  0  0
  6 21  1  0  0  0  0
  6 22  1  0  0  0  0
  7 23  1  0  0  0  0
  7 24  1  0  0  0  0
  7 25  1  0  0  0  0
  8 10  1  0  0  0  0
  8 26  1  0  0  0  0
  9 11  2  0  0  0  0
  9 27  1  0  0  0  0
 10 12  2  0  0  0  0
 10 28  1  0  0  0  0
 11 12  1  0  0  0  0
 11 29  1  0  0  0  0
 12 30  1  0  0  0  0
 13 14  3  0  0  0  0
 14 31  1  0  0  0  0
M  END
> <PUBCHEM_COMPOUND_CID>
5195

> <PUBCHEM_CONFORMER_RMSD>
0.6

> <PUBCHEM_CONFORMER_DIVERSEORDER>
1
13
36
19
42
22
32
25
17
45
20
12
39
28
2
43
37
24
5
23
27
31
6
14
4
38
18
8
40
21
33
41
11
44
26
34
7
9
3
29
30
15
16
35
10

> <PUBCHEM_MMFF94_PARTIAL_CHARGES>
19
1 -0.81
10 -0.15
11 -0.15
12 -0.15
13 -0.2
14 -0.18
2 0.27
26 0.15
27 0.15
28 0.15
29 0.15
3 0.14
30 0.15
31 0.18
5 -0.14
6 0.47
7 0.27
8 -0.15
9 -0.15

> <PUBCHEM_EFFECTIVE_ROTOR_COUNT>
4

> <PUBCHEM_PHARMACOPHORE_FEATURES>
3
1 1 cation
1 14 hydrophobe
6 5 8 9 10 11 12 rings

> <PUBCHEM_HEAVY_ATOM_COUNT>
14

> <PUBCHEM_ATOM_DEF_STEREO_COUNT>
0

> <PUBCHEM_ATOM_UDEF_STEREO_COUNT>
1

> <PUBCHEM_BOND_DEF_STEREO_COUNT>
0

> <PUBCHEM_BOND_UDEF_STEREO_COUNT>
0

> <PUBCHEM_ISOTOPIC_ATOM_COUNT>
0

> <PUBCHEM_COMPONENT_COUNT>
1

> <PUBCHEM_CACTVS_TAUTO_COUNT>
1

> <PUBCHEM_CONFORMER_ID>
0000144B00000001

> <PUBCHEM_MMFF94_ENERGY>
38.201

> <PUBCHEM_FEATURE_SELFOVERLAP>
15.223

> <PUBCHEM_SHAPE_FINGERPRINT>
10366900 7 18408889542523751888
11287383 113 16805607001416983759
114248 4 16950279624639778631
11471102 20 17748827423634028398
12236239 1 18413387635792116950
124424 183 16153708717350089188
12500047 106 14779551205189804376
12916754 54 18271807865595104278
13296908 3 16226058785691544408
13571099 22 17603305951169031374
13675066 3 11097851895622875005
13760787 5 18260558822023584228
14251717 144 18040713658520598522
14252887 29 15841839966271680615
14943859 89 12468356843056316901
15242439 84 15936127456467113634
15375358 24 16370445561745213258
17834072 14 16950282909894043420
17844478 74 14764630789493369938
18186145 218 16153431623182147585
19026448 4 16009039409573190440
200 152 18261106365929152479
20279233 1 16443349762546175058
20281475 54 18202004278767806419
20528008 55 17748828527081966234
20645477 56 14634871955106869047
20645477 70 17676481714326182874
22169311 21 16588311591781577178
23402539 116 18334007268601458405
23402655 69 17894907412622908463
23557571 272 16773810176913168048
23559900 14 15213020440869177218
26918003 58 17603304860284255248
4028521 119 15068610583524285479
57812782 119 17022905644466373900
6430166 295 11530474532696768751
69090 78 16950278524927794779

> <PUBCHEM_SHAPE_MULTIPOLES>
283.13
9.46
1.32
1.12
3.76
0.32
-0.23
-2.72
1.17
-0.05
-0.11
0.4
0.11
-1.15

> <PUBCHEM_SHAPE_SELFOVERLAP>
570.053

> <PUBCHEM_SHAPE_VOLUME>
166.5

> <PUBCHEM_COORDINATE_TYPE>
2
5
10

$$$$
