9885319
  -OEChem-09252021033D

 53 57  0     1  0  0  0  0  0999 V2000
   -1.5260    0.0756    0.3356 O   0  0  0  0  0  0  0  0  0  0  0  0
   -1.3762   -0.8775    2.4069 O   0  0  0  0  0  0  0  0  0  0  0  0
   -4.6058   -1.5287   -0.2507 N   0  0  0  0  0  0  0  0  0  0  0  0
    0.5476   -0.5457    1.1351 N   0  0  0  0  0  0  0  0  0  0  0  0
   -3.5899    0.8119   -0.7429 C   0  0  0  0  0  0  0  0  0  0  0  0
   -2.9443    0.1787    0.5030 C   0  0  1  0  0  0  0  0  0  0  0  0
   -5.0984    0.9134   -0.4763 C   0  0  0  0  0  0  0  0  0  0  0  0
   -3.3943   -0.1391   -1.9367 C   0  0  0  0  0  0  0  0  0  0  0  0
   -3.5354   -1.2247    0.7270 C   0  0  0  0  0  0  0  0  0  0  0  0
   -5.6520   -0.4861   -0.1597 C   0  0  0  0  0  0  0  0  0  0  0  0
   -4.0237   -1.5029   -1.6101 C   0  0  0  0  0  0  0  0  0  0  0  0
   -0.8327   -0.4816    1.3774 C   0  0  0  0  0  0  0  0  0  0  0  0
    1.1856   -0.0208   -0.1000 C   0  0  2  0  0  0  0  0  0  0  0  0
    1.4324   -1.1148    2.1506 C   0  0  0  0  0  0  0  0  0  0  0  0
    2.4420   -0.7872   -0.5049 C   0  0  0  0  0  0  0  0  0  0  0  0
    2.2624   -2.2448    1.5604 C   0  0  0  0  0  0  0  0  0  0  0  0
    2.9605   -1.8232    0.2949 C   0  0  0  0  0  0  0  0  0  0  0  0
    1.4016    1.4873    0.0017 C   0  0  0  0  0  0  0  0  0  0  0  0
    3.0865   -0.4744   -1.7150 C   0  0  0  0  0  0  0  0  0  0  0  0
    4.1040   -2.5197   -0.1240 C   0  0  0  0  0  0  0  0  0  0  0  0
    0.4082    2.3556   -0.4360 C   0  0  0  0  0  0  0  0  0  0  0  0
    2.5897    1.9778    0.5309 C   0  0  0  0  0  0  0  0  0  0  0  0
    4.2304   -1.1650   -2.1147 C   0  0  0  0  0  0  0  0  0  0  0  0
    4.7396   -2.1862   -1.3188 C   0  0  0  0  0  0  0  0  0  0  0  0
    0.6057    3.7334   -0.3436 C   0  0  0  0  0  0  0  0  0  0  0  0
    2.7872    3.3555    0.6236 C   0  0  0  0  0  0  0  0  0  0  0  0
    1.7951    4.2332    0.1863 C   0  0  0  0  0  0  0  0  0  0  0  0
   -3.1512    1.7902   -0.9646 H   0  0  0  0  0  0  0  0  0  0  0  0
   -3.1424    0.8222    1.3706 H   0  0  0  0  0  0  0  0  0  0  0  0
   -5.2900    1.5909    0.3642 H   0  0  0  0  0  0  0  0  0  0  0  0
   -5.6090    1.3291   -1.3531 H   0  0  0  0  0  0  0  0  0  0  0  0
   -3.8642    0.2830   -2.8331 H   0  0  0  0  0  0  0  0  0  0  0  0
   -2.3276   -0.2606   -2.1586 H   0  0  0  0  0  0  0  0  0  0  0  0
   -2.7861   -2.0226    0.6604 H   0  0  0  0  0  0  0  0  0  0  0  0
   -3.9579   -1.2903    1.7378 H   0  0  0  0  0  0  0  0  0  0  0  0
   -6.0963   -0.4949    0.8436 H   0  0  0  0  0  0  0  0  0  0  0  0
   -6.4738   -0.7260   -0.8459 H   0  0  0  0  0  0  0  0  0  0  0  0
   -4.7983   -1.7443   -2.3488 H   0  0  0  0  0  0  0  0  0  0  0  0
   -3.2703   -2.2947   -1.7065 H   0  0  0  0  0  0  0  0  0  0  0  0
    0.4734   -0.2012   -0.9176 H   0  0  0  0  0  0  0  0  0  0  0  0
    0.8601   -1.4841    3.0075 H   0  0  0  0  0  0  0  0  0  0  0  0
    2.0766   -0.3061    2.5155 H   0  0  0  0  0  0  0  0  0  0  0  0
    1.6140   -3.0975    1.3233 H   0  0  0  0  0  0  0  0  0  0  0  0
    2.9941   -2.5752    2.3069 H   0  0  0  0  0  0  0  0  0  0  0  0
    2.6969    0.3108   -2.3587 H   0  0  0  0  0  0  0  0  0  0  0  0
    4.5031   -3.3312    0.4796 H   0  0  0  0  0  0  0  0  0  0  0  0
   -0.5122    1.9913   -0.8789 H   0  0  0  0  0  0  0  0  0  0  0  0
    3.3727    1.3194    0.8949 H   0  0  0  0  0  0  0  0  0  0  0  0
    4.7194   -0.9095   -3.0502 H   0  0  0  0  0  0  0  0  0  0  0  0
    5.6262   -2.7295   -1.6323 H   0  0  0  0  0  0  0  0  0  0  0  0
   -0.1640    4.4168   -0.6902 H   0  0  0  0  0  0  0  0  0  0  0  0
    3.7118    3.7452    1.0394 H   0  0  0  0  0  0  0  0  0  0  0  0
    1.9492    5.3060    0.2577 H   0  0  0  0  0  0  0  0  0  0  0  0
  1  6  1  0  0  0  0
  1 12  1  0  0  0  0
  2 12  2  0  0  0  0
  3  9  1  0  0  0  0
  3 10  1  0  0  0  0
  3 11  1  0  0  0  0
  4 12  1  0  0  0  0
  4 13  1  0  0  0  0
  4 14  1  0  0  0  0
  5  6  1  0  0  0  0
  5  7  1  0  0  0  0
  5  8  1  0  0  0  0
  5 28  1  0  0  0  0
  6  9  1  0  0  0  0
  6 29  1  0  0  0  0
  7 10  1  0  0  0  0
  7 30  1  0  0  0  0
  7 31  1  0  0  0  0
  8 11  1  0  0  0  0
  8 32  1  0  0  0  0
  8 33  1  0  0  0  0
  9 34  1  0  0  0  0
  9 35  1  0  0  0  0
 10 36  1  0  0  0  0
 10 37  1  0  0  0  0
 11 38  1  0  0  0  0
 11 39  1  0  0  0  0
 13 15  1  0  0  0  0
 13 18  1  0  0  0  0
 13 40  1  0  0  0  0
 14 16  1  0  0  0  0
 14 41  1  0  0  0  0
 14 42  1  0  0  0  0
 15 17  1  0  0  0  0
 15 19  2  0  0  0  0
 16 17  1  0  0  0  0
 16 43  1  0  0  0  0
 16 44  1  0  0  0  0
 17 20  2  0  0  0  0
 18 21  2  0  0  0  0
 18 22  1  0  0  0  0
 19 23  1  0  0  0  0
 19 45  1  0  0  0  0
 20 24  1  0  0  0  0
 20 46  1  0  0  0  0
 21 25  1  0  0  0  0
 21 47  1  0  0  0  0
 22 26  2  0  0  0  0
 22 48  1  0  0  0  0
 23 24  2  0  0  0  0
 23 49  1  0  0  0  0
 24 50  1  0  0  0  0
 25 27  2  0  0  0  0
 25 51  1  0  0  0  0
 26 27  1  0  0  0  0
 26 52  1  0  0  0  0
 27 53  1  0  0  0  0
M  END
> <PUBCHEM_COMPOUND_CID>
9885319

> <PUBCHEM_CONFORMER_RMSD>
0.8

> <PUBCHEM_CONFORMER_DIVERSEORDER>
1
3
33
24
34
35
2
23
25
31
22
17
26
49
6
10
18
40
4
36
20
12
47
14
15
44
11
43
8
45
28
21
39
13
9
42
32
7
48
38
27
16
29
19
30
5
46
41
37

> <PUBCHEM_MMFF94_PARTIAL_CHARGES>
33
1 -0.43
10 0.27
11 0.27
12 0.78
13 0.59
14 0.3
15 -0.14
16 0.14
17 -0.14
18 -0.14
19 -0.15
2 -0.57
20 -0.15
21 -0.15
22 -0.15
23 -0.15
24 -0.15
25 -0.15
26 -0.15
27 -0.15
3 -0.81
4 -0.66
45 0.15
46 0.15
47 0.15
48 0.15
49 0.15
50 0.15
51 0.15
52 0.15
53 0.15
6 0.28
9 0.27

> <PUBCHEM_EFFECTIVE_ROTOR_COUNT>
6

> <PUBCHEM_PHARMACOPHORE_FEATURES>
6
1 2 acceptor
1 3 cation
6 15 17 19 20 23 24 rings
6 18 21 22 25 26 27 rings
6 4 13 14 15 16 17 rings
8 3 5 6 7 8 9 10 11 rings

> <PUBCHEM_HEAVY_ATOM_COUNT>
27

> <PUBCHEM_ATOM_DEF_STEREO_COUNT>
0

> <PUBCHEM_ATOM_UDEF_STEREO_COUNT>
2

> <PUBCHEM_BOND_DEF_STEREO_COUNT>
0

> <PUBCHEM_BOND_UDEF_STEREO_COUNT>
0

> <PUBCHEM_ISOTOPIC_ATOM_COUNT>
0

> <PUBCHEM_COMPONENT_COUNT>
1

> <PUBCHEM_CACTVS_TAUTO_COUNT>
1

> <PUBCHEM_CONFORMER_ID>
0096D68700000001

> <PUBCHEM_MMFF94_ENERGY>
75.8021

> <PUBCHEM_FEATURE_SELFOVERLAP>
30.469

> <PUBCHEM_SHAPE_FINGERPRINT>
10498660 4 15357695280168905919
10764073 3 15655143918678831792
10930396 42 18189874536544145552
11477941 20 17622493443582973684
12293681 160 18041578953144987586
12422481 6 17841675678868022760
12553582 1 18265054639212373731
12788726 201 17902232213300850568
13009979 54 17632311037692095272
13134695 92 18410015420729060428
13224815 77 16950553394592775311
133893 2 18055661592098891808
13899415 180 18339914927360609044
13911987 19 18044969885618082854
14251757 5 18047751490621367229
14347329 18 16444178713263301181
14739800 52 12685088215589578431
15210252 30 17095252414315605972
15775530 1 17753067264582043546
17492 89 18342174522777709663
17909252 39 18338517435218058530
1813 80 18059582334588653702
18608769 82 17386586772502164067
19319366 153 17246118410823727081
20775438 99 18121486123491876743
21860390 5 18337101371478710452
221357 26 18260547797401516501
22182313 1 17898023561799224331
22393880 68 18261107491638274239
23559900 14 18341607131690505715
238 59 18195540409011902744
244849 19 18116166638627189291
3004659 81 17704356576136761295
340366 18 18201995526151932943
376196 1 17832412468838961528
4017518 198 17770787016621664732
4280585 95 18341327804277006054
46194498 28 18340485659836988391
463206 1 18335702672176601970
513532 50 18339634629315733336
5281201 14 18410292540746050357
57527295 17 18187088321200141130
5969126 39 18269557127329522366
6438718 38 17693963811631601232
6823239 73 18409161104204357145
70251023 43 18341621407940277659
7164475 11 17975422304827434878
7471813 234 18336550392100017206
9709674 26 18264207079451857667
9981440 41 17762047040481441321

> <PUBCHEM_SHAPE_MULTIPOLES>
533.95
10.23
3.92
1.86
10.53
5.14
-0.12
-5.98
4.42
-4.84
-0.18
-0.55
-1.11
0.74

> <PUBCHEM_SHAPE_SELFOVERLAP>
1169.23

> <PUBCHEM_SHAPE_VOLUME>
281.8

> <PUBCHEM_COORDINATE_TYPE>
2
5
10

$$$$
