68770
  -OEChem-09252021033D

 59 60  0     1  0  0  0  0  0999 V2000
   -2.8012    0.5981    1.5217 O   0  0  0  0  0  0  0  0  0  0  0  0
    3.1241   -1.8308    0.3585 O   0  0  0  0  0  0  0  0  0  0  0  0
    5.8256   -2.4318    0.6399 O   0  0  0  0  0  0  0  0  0  0  0  0
   -4.3206    0.3782   -0.2067 N   0  0  0  0  0  0  0  0  0  0  0  0
    5.0469    0.9316   -0.6987 N   0  0  0  0  0  0  0  0  0  0  0  0
   -2.1966   -0.4410   -0.4947 N   0  0  0  0  0  0  0  0  0  0  0  0
   -5.4293    1.0219    0.4623 C   0  0  0  0  0  0  0  0  0  0  0  0
   -6.3201    1.7652   -0.5387 C   0  0  0  0  0  0  0  0  0  0  0  0
   -6.2388    0.0123    1.2832 C   0  0  0  0  0  0  0  0  0  0  0  0
   -7.1358    0.8142   -1.4145 C   0  0  0  0  0  0  0  0  0  0  0  0
   -7.0546   -0.9359    0.4043 C   0  0  0  0  0  0  0  0  0  0  0  0
   -7.9411   -0.1732   -0.5753 C   0  0  0  0  0  0  0  0  0  0  0  0
    5.1513    2.2599   -0.1101 C   0  0  0  0  0  0  0  0  0  0  0  0
   -3.0645    0.2114    0.3855 C   0  0  0  0  0  0  0  0  0  0  0  0
    5.5035   -0.0890    0.2350 C   0  0  0  0  0  0  0  0  0  0  0  0
    5.3949   -1.4974   -0.3541 C   0  0  2  0  0  0  0  0  0  0  0  0
    4.2830    2.3042    1.1518 C   0  0  0  0  0  0  0  0  0  0  0  0
    6.6149    2.5446    0.2470 C   0  0  0  0  0  0  0  0  0  0  0  0
    4.6488    3.2871   -1.1302 C   0  0  0  0  0  0  0  0  0  0  0  0
    3.9768   -1.8652   -0.7851 C   0  0  0  0  0  0  0  0  0  0  0  0
   -0.8447   -0.7956   -0.2774 C   0  0  0  0  0  0  0  0  0  0  0  0
    1.8223   -1.4927    0.1505 C   0  0  0  0  0  0  0  0  0  0  0  0
   -0.1252   -1.4483   -1.2784 C   0  0  0  0  0  0  0  0  0  0  0  0
   -0.2306   -0.4913    0.9375 C   0  0  0  0  0  0  0  0  0  0  0  0
    1.2083   -1.7968   -1.0645 C   0  0  0  0  0  0  0  0  0  0  0  0
    1.1029   -0.8398    1.1515 C   0  0  0  0  0  0  0  0  0  0  0  0
   -5.0063    1.7608    1.1542 H   0  0  0  0  0  0  0  0  0  0  0  0
   -7.0109    2.4155    0.0132 H   0  0  0  0  0  0  0  0  0  0  0  0
   -5.7126    2.4169   -1.1783 H   0  0  0  0  0  0  0  0  0  0  0  0
   -5.5781   -0.5741    1.9329 H   0  0  0  0  0  0  0  0  0  0  0  0
   -6.9258    0.5592    1.9417 H   0  0  0  0  0  0  0  0  0  0  0  0
   -7.8168    1.3957   -2.0466 H   0  0  0  0  0  0  0  0  0  0  0  0
   -6.4728    0.2644   -2.0927 H   0  0  0  0  0  0  0  0  0  0  0  0
   -6.3796   -1.5979   -0.1517 H   0  0  0  0  0  0  0  0  0  0  0  0
   -7.6765   -1.5784    1.0380 H   0  0  0  0  0  0  0  0  0  0  0  0
   -8.4582   -0.8808   -1.2331 H   0  0  0  0  0  0  0  0  0  0  0  0
   -8.7155    0.3692   -0.0187 H   0  0  0  0  0  0  0  0  0  0  0  0
   -4.4767   -0.0370   -1.1198 H   0  0  0  0  0  0  0  0  0  0  0  0
    5.5960    0.8800   -1.5564 H   0  0  0  0  0  0  0  0  0  0  0  0
    4.9347   -0.0918    1.1700 H   0  0  0  0  0  0  0  0  0  0  0  0
    6.5554    0.0396    0.5122 H   0  0  0  0  0  0  0  0  0  0  0  0
    6.0715   -1.5971   -1.2104 H   0  0  0  0  0  0  0  0  0  0  0  0
    4.7209    1.7789    2.0070 H   0  0  0  0  0  0  0  0  0  0  0  0
    3.2794    1.9009    0.9701 H   0  0  0  0  0  0  0  0  0  0  0  0
    4.1496    3.3427    1.4805 H   0  0  0  0  0  0  0  0  0  0  0  0
    6.7426    3.6058    0.4952 H   0  0  0  0  0  0  0  0  0  0  0  0
    7.2870    2.3336   -0.5933 H   0  0  0  0  0  0  0  0  0  0  0  0
    6.9686    1.9896    1.1221 H   0  0  0  0  0  0  0  0  0  0  0  0
    5.2497    3.2678   -2.0471 H   0  0  0  0  0  0  0  0  0  0  0  0
    3.6064    3.0941   -1.4102 H   0  0  0  0  0  0  0  0  0  0  0  0
    4.6984    4.3044   -0.7255 H   0  0  0  0  0  0  0  0  0  0  0  0
   -2.5741   -0.6942   -1.4044 H   0  0  0  0  0  0  0  0  0  0  0  0
    3.6542   -1.1765   -1.5752 H   0  0  0  0  0  0  0  0  0  0  0  0
    3.9702   -2.8900   -1.1750 H   0  0  0  0  0  0  0  0  0  0  0  0
    5.1951   -2.3908    1.3793 H   0  0  0  0  0  0  0  0  0  0  0  0
   -0.5942   -1.6966   -2.2271 H   0  0  0  0  0  0  0  0  0  0  0  0
   -0.7204    0.0122    1.7588 H   0  0  0  0  0  0  0  0  0  0  0  0
    1.7228   -2.3308   -1.8580 H   0  0  0  0  0  0  0  0  0  0  0  0
    1.5782   -0.5994    2.0987 H   0  0  0  0  0  0  0  0  0  0  0  0
  1 14  2  0  0  0  0
  2 20  1  0  0  0  0
  2 22  1  0  0  0  0
  3 16  1  0  0  0  0
  3 55  1  0  0  0  0
  4  7  1  0  0  0  0
  4 14  1  0  0  0  0
  4 38  1  0  0  0  0
  5 13  1  0  0  0  0
  5 15  1  0  0  0  0
  5 39  1  0  0  0  0
  6 14  1  0  0  0  0
  6 21  1  0  0  0  0
  6 52  1  0  0  0  0
  7  8  1  0  0  0  0
  7  9  1  0  0  0  0
  7 27  1  0  0  0  0
  8 10  1  0  0  0  0
  8 28  1  0  0  0  0
  8 29  1  0  0  0  0
  9 11  1  0  0  0  0
  9 30  1  0  0  0  0
  9 31  1  0  0  0  0
 10 12  1  0  0  0  0
 10 32  1  0  0  0  0
 10 33  1  0  0  0  0
 11 12  1  0  0  0  0
 11 34  1  0  0  0  0
 11 35  1  0  0  0  0
 12 36  1  0  0  0  0
 12 37  1  0  0  0  0
 13 17  1  0  0  0  0
 13 18  1  0  0  0  0
 13 19  1  0  0  0  0
 15 16  1  0  0  0  0
 15 40  1  0  0  0  0
 15 41  1  0  0  0  0
 16 20  1  0  0  0  0
 16 42  1  0  0  0  0
 17 43  1  0  0  0  0
 17 44  1  0  0  0  0
 17 45  1  0  0  0  0
 18 46  1  0  0  0  0
 18 47  1  0  0  0  0
 18 48  1  0  0  0  0
 19 49  1  0  0  0  0
 19 50  1  0  0  0  0
 19 51  1  0  0  0  0
 20 53  1  0  0  0  0
 20 54  1  0  0  0  0
 21 23  2  0  0  0  0
 21 24  1  0  0  0  0
 22 25  2  0  0  0  0
 22 26  1  0  0  0  0
 23 25  1  0  0  0  0
 23 56  1  0  0  0  0
 24 26  2  0  0  0  0
 24 57  1  0  0  0  0
 25 58  1  0  0  0  0
 26 59  1  0  0  0  0
M  END
> <PUBCHEM_COMPOUND_CID>
68770

> <PUBCHEM_CONFORMER_RMSD>
1

> <PUBCHEM_CONFORMER_DIVERSEORDER>
2
22
69
29
82
76
23
78
5
28
73
75
50
48
52
51
15
70
54
77
59
58
79
34
41
16
20
80
13
74
21
31
61
14
83
63
47
55
46
24
65
68
42
12
84
66
17
53
9
60
49
71
72
45
18
39
43
37
25
19
62
67
7
8
81
32
56
40
57
26
3
64
35
30
38
11
33
44
6
27
1
4
36
10

> <PUBCHEM_MMFF94_PARTIAL_CHARGES>
26
1 -0.57
13 0.27
14 0.69
15 0.27
16 0.28
2 -0.36
20 0.28
21 0.12
22 0.08
23 -0.15
24 -0.15
25 -0.15
26 -0.15
3 -0.68
38 0.37
39 0.36
4 -0.73
5 -0.9
52 0.37
55 0.4
56 0.15
57 0.15
58 0.15
59 0.15
6 -0.55
7 0.3

> <PUBCHEM_EFFECTIVE_ROTOR_COUNT>
11.2

> <PUBCHEM_PHARMACOPHORE_FEATURES>
11
1 1 acceptor
1 2 acceptor
1 3 acceptor
1 3 donor
1 4 donor
1 5 cation
1 5 donor
1 6 donor
4 13 17 18 19 hydrophobe
6 21 22 23 24 25 26 rings
6 7 8 9 10 11 12 rings

> <PUBCHEM_HEAVY_ATOM_COUNT>
26

> <PUBCHEM_ATOM_DEF_STEREO_COUNT>
0

> <PUBCHEM_ATOM_UDEF_STEREO_COUNT>
1

> <PUBCHEM_BOND_DEF_STEREO_COUNT>
0

> <PUBCHEM_BOND_UDEF_STEREO_COUNT>
0

> <PUBCHEM_ISOTOPIC_ATOM_COUNT>
0

> <PUBCHEM_COMPONENT_COUNT>
1

> <PUBCHEM_CACTVS_TAUTO_COUNT>
3

> <PUBCHEM_CONFORMER_ID>
00010CA200000002

> <PUBCHEM_MMFF94_ENERGY>
55.4942

> <PUBCHEM_FEATURE_SELFOVERLAP>
55.877

> <PUBCHEM_SHAPE_FINGERPRINT>
10162869 55 18341881996438761182
10638233 991 17918276458993927465
10673678 19 18272374208704473902
11101153 10 18341616997436938153
11315181 36 18336548232269355281
11386260 185 18412550882159041756
11761917 116 17416108719980397887
11796584 16 11743827058552332397
11991303 11 17917424363315885775
125118 31 18335702706825912501
12522641 24 17386274412346822538
12838862 33 18272361023851980744
12925494 130 18266456697432868696
13617811 41 15626226814360269129
13685833 64 10447931671940369101
13878862 14 18337657668870662444
14429380 56 18410002230826361997
14461889 52 18040722514669408051
14556957 393 17775288210386978137
14767858 380 17489590064994310681
15183329 4 17203894084545995801
15352257 5 10663810889103609693
15961568 22 18260827103473451709
16760501 71 18409452513445750044
18335252 114 18343582924348019468
20157964 124 18412829084138362230
20554085 129 16370720431363195945
20567600 234 18261395576310833365
21033648 29 17312818268987015542
21049683 118 18114448068158012914
21315759 40 17203327758532092719
21344244 181 11959731585857803484
21344244 78 18122608476409478154
21641784 216 16773528680493147105
23081809 10 17346600721349633067
23424782 7 18335987566732575387
23522609 53 17131011818464437625
249057 25 17917436367358483402
249057 3 18271809000068461598
328310 630 18201166473195083489
33382 64 9511458922781822726
3472631 163 18130510824943057788
34797466 226 18131078116628581695
397830 11 18114192985544124563
4072396 5 14057002719428290762
44317340 157 18342171189376289382
445580 126 18342167900296634160
445580 167 18343013428848569423
4625314 4 18411982421667737687
68570916 9 18413387661683753271
9849439 229 18196368354891505184

> <PUBCHEM_SHAPE_MULTIPOLES>
502.52
23.02
2.89
1.25
25.53
1.39
-0.02
9.5
1.6
-7.02
0.48
0.61
0.12
0.2

> <PUBCHEM_SHAPE_SELFOVERLAP>
1018.647

> <PUBCHEM_SHAPE_VOLUME>
291.9

> <PUBCHEM_COORDINATE_TYPE>
2
5
10

$$$$
