60021
  -OEChem-09252021033D

 48 51  0     1  0  0  0  0  0999 V2000
   -2.2587    3.6386   -0.2042 F   0  0  0  0  0  0  0  0  0  0  0  0
    1.2024   -1.8847    2.3141 F   0  0  0  0  0  0  0  0  0  0  0  0
    0.5244   -5.8826   -0.1240 F   0  0  0  0  0  0  0  0  0  0  0  0
    2.7573    3.5062   -0.3504 O   0  0  0  0  0  0  0  0  0  0  0  0
    5.1146    2.6621    0.4646 O   0  0  0  0  0  0  0  0  0  0  0  0
    5.6635    0.6713   -0.5180 O   0  0  0  0  0  0  0  0  0  0  0  0
   -3.0929    1.0079    0.0676 N   0  0  1  0  0  0  0  0  0  0  0  0
   -5.7981    0.1695    0.4052 N   0  0  0  0  0  0  0  0  0  0  0  0
    1.6073   -0.4198   -0.0361 N   0  0  0  0  0  0  0  0  0  0  0  0
   -5.0332   -0.2708   -0.7670 C   0  0  1  0  0  0  0  0  0  0  0  0
   -3.5292   -0.2944   -0.4565 C   0  0  0  0  0  0  0  0  0  0  0  0
   -3.8982    1.5535    1.1647 C   0  0  0  0  0  0  0  0  0  0  0  0
   -5.3833    1.5116    0.8088 C   0  0  0  0  0  0  0  0  0  0  0  0
   -1.7346    1.3318   -0.0231 C   0  0  0  0  0  0  0  0  0  0  0  0
   -5.5173   -1.6573   -1.1875 C   0  0  0  0  0  0  0  0  0  0  0  0
   -0.7748    0.3162    0.0226 C   0  0  0  0  0  0  0  0  0  0  0  0
    0.5990    0.6036   -0.0802 C   0  0  0  0  0  0  0  0  0  0  0  0
   -1.3441    2.6595   -0.1587 C   0  0  0  0  0  0  0  0  0  0  0  0
    0.9712    1.9617   -0.1878 C   0  0  0  0  0  0  0  0  0  0  0  0
    0.0081    2.9790   -0.2355 C   0  0  0  0  0  0  0  0  0  0  0  0
    2.4053    2.3397   -0.2278 C   0  0  0  0  0  0  0  0  0  0  0  0
    2.9394   -0.0111   -0.0203 C   0  0  0  0  0  0  0  0  0  0  0  0
    3.3938    1.2446   -0.1038 C   0  0  0  0  0  0  0  0  0  0  0  0
    1.3290   -1.8256   -0.0567 C   0  0  0  0  0  0  0  0  0  0  0  0
    1.1318   -2.5250    1.1384 C   0  0  0  0  0  0  0  0  0  0  0  0
    1.2515   -2.5089   -1.2746 C   0  0  0  0  0  0  0  0  0  0  0  0
    4.8415    1.4623   -0.0902 C   0  0  0  0  0  0  0  0  0  0  0  0
    0.8601   -3.8932    1.1158 C   0  0  0  0  0  0  0  0  0  0  0  0
    0.9799   -3.8767   -1.2973 C   0  0  0  0  0  0  0  0  0  0  0  0
    0.7842   -4.5689   -0.1021 C   0  0  0  0  0  0  0  0  0  0  0  0
   -5.2244    0.4216   -1.5973 H   0  0  0  0  0  0  0  0  0  0  0  0
   -3.3114   -1.0813    0.2781 H   0  0  0  0  0  0  0  0  0  0  0  0
   -2.9949   -0.5366   -1.3846 H   0  0  0  0  0  0  0  0  0  0  0  0
   -3.6284    2.5901    1.3939 H   0  0  0  0  0  0  0  0  0  0  0  0
   -3.7110    0.9664    2.0731 H   0  0  0  0  0  0  0  0  0  0  0  0
   -5.9763    1.8240    1.6753 H   0  0  0  0  0  0  0  0  0  0  0  0
   -5.6023    2.2242    0.0040 H   0  0  0  0  0  0  0  0  0  0  0  0
   -5.6363   -0.4780    1.1769 H   0  0  0  0  0  0  0  0  0  0  0  0
   -4.9802   -1.9991   -2.0788 H   0  0  0  0  0  0  0  0  0  0  0  0
   -5.3600   -2.3984   -0.3956 H   0  0  0  0  0  0  0  0  0  0  0  0
   -6.5860   -1.6423   -1.4289 H   0  0  0  0  0  0  0  0  0  0  0  0
   -1.0825   -0.7179    0.1496 H   0  0  0  0  0  0  0  0  0  0  0  0
    0.2932    4.0238   -0.3241 H   0  0  0  0  0  0  0  0  0  0  0  0
    3.6308   -0.8467    0.0594 H   0  0  0  0  0  0  0  0  0  0  0  0
    1.4009   -1.9808   -2.2132 H   0  0  0  0  0  0  0  0  0  0  0  0
    0.7077   -4.4320    2.0461 H   0  0  0  0  0  0  0  0  0  0  0  0
    0.9205   -4.4033   -2.2451 H   0  0  0  0  0  0  0  0  0  0  0  0
    6.0780    2.8450    0.4917 H   0  0  0  0  0  0  0  0  0  0  0  0
  1 18  1  0  0  0  0
  2 25  1  0  0  0  0
  3 30  1  0  0  0  0
  4 21  2  0  0  0  0
  5 27  1  0  0  0  0
  5 48  1  0  0  0  0
  6 27  2  0  0  0  0
  7 11  1  0  0  0  0
  7 12  1  0  0  0  0
  7 14  1  0  0  0  0
  8 10  1  0  0  0  0
  8 13  1  0  0  0  0
  8 38  1  0  0  0  0
  9 17  1  0  0  0  0
  9 22  1  0  0  0  0
  9 24  1  0  0  0  0
 10 11  1  0  0  0  0
 10 15  1  0  0  0  0
 10 31  1  0  0  0  0
 11 32  1  0  0  0  0
 11 33  1  0  0  0  0
 12 13  1  0  0  0  0
 12 34  1  0  0  0  0
 12 35  1  0  0  0  0
 13 36  1  0  0  0  0
 13 37  1  0  0  0  0
 14 16  1  0  0  0  0
 14 18  2  0  0  0  0
 15 39  1  0  0  0  0
 15 40  1  0  0  0  0
 15 41  1  0  0  0  0
 16 17  2  0  0  0  0
 16 42  1  0  0  0  0
 17 19  1  0  0  0  0
 18 20  1  0  0  0  0
 19 20  2  0  0  0  0
 19 21  1  0  0  0  0
 20 43  1  0  0  0  0
 21 23  1  0  0  0  0
 22 23  2  0  0  0  0
 22 44  1  0  0  0  0
 23 27  1  0  0  0  0
 24 25  2  0  0  0  0
 24 26  1  0  0  0  0
 25 28  1  0  0  0  0
 26 29  2  0  0  0  0
 26 45  1  0  0  0  0
 28 30  2  0  0  0  0
 28 46  1  0  0  0  0
 29 30  1  0  0  0  0
 29 47  1  0  0  0  0
M  END
> <PUBCHEM_COMPOUND_CID>
60021

> <PUBCHEM_CONFORMER_RMSD>
0.8

> <PUBCHEM_CONFORMER_DIVERSEORDER>
7
17
27
19
15
13
24
12
18
11
26
21
6
25
28
23
4
1
14
22
2
10
3
20
5
16
9
8

> <PUBCHEM_MMFF94_PARTIAL_CHARGES>
37
1 -0.19
10 0.27
11 0.37
12 0.37
13 0.27
14 0.1
16 -0.15
17 0.1
18 0.19
19 0.09
2 -0.19
20 -0.15
21 0.47
22 -0.05
23 0.03
24 0.1
25 0.19
26 -0.15
27 0.71
28 -0.15
29 -0.15
3 -0.19
30 0.19
38 0.36
4 -0.57
42 0.15
43 0.15
44 0.15
45 0.15
46 0.15
47 0.15
48 0.5
5 -0.65
6 -0.57
7 -0.84
8 -0.9
9 -0.3

> <PUBCHEM_EFFECTIVE_ROTOR_COUNT>
4.2

> <PUBCHEM_PHARMACOPHORE_FEATURES>
13
1 23 anion
1 4 acceptor
1 5 acceptor
1 6 acceptor
1 7 cation
1 8 cation
1 8 donor
1 9 cation
3 5 6 27 anion
6 14 16 17 18 19 20 rings
6 24 25 26 28 29 30 rings
6 7 8 10 11 12 13 rings
6 9 17 19 21 22 23 rings

> <PUBCHEM_HEAVY_ATOM_COUNT>
30

> <PUBCHEM_ATOM_DEF_STEREO_COUNT>
0

> <PUBCHEM_ATOM_UDEF_STEREO_COUNT>
1

> <PUBCHEM_BOND_DEF_STEREO_COUNT>
0

> <PUBCHEM_BOND_UDEF_STEREO_COUNT>
0

> <PUBCHEM_ISOTOPIC_ATOM_COUNT>
0

> <PUBCHEM_COMPONENT_COUNT>
1

> <PUBCHEM_CACTVS_TAUTO_COUNT>
1

> <PUBCHEM_CONFORMER_ID>
0000EA7500000007

> <PUBCHEM_MMFF94_ENERGY>
98.5985

> <PUBCHEM_FEATURE_SELFOVERLAP>
66.394

> <PUBCHEM_SHAPE_FINGERPRINT>
10074138 170 17980171387547138250
10090160 65 18335419092860387069
10906281 52 18115608005316827737
1100329 8 18121492720529267196
11135926 11 18409722937930446805
11421498 54 17989214706997135041
11991303 11 17897730001069496238
12107183 9 17550682011111159609
12156800 1 17477170170340821123
12236239 1 18060422451556369805
12553582 1 18050286969062255967
12788726 201 17254828097514077746
12839892 36 18265878203860921504
13140716 1 18337394958126175657
1361 2 18411419543958250000
13692114 37 18055341689786078346
138480 1 17978231552060842694
14790565 3 18339365278605145693
14863182 85 18335996297825945404
15131766 46 14998273871930290020
16728300 4 17461410587566387560
16993438 75 17973165316625191499
17134984 74 18123724686954412543
17138139 8 17627488756366902799
18681886 176 18336259162910458848
19311894 1 17984132931852705135
19591789 44 18266458883006641780
20028762 73 18343298188974263974
20511986 3 18130779050136187393
20567600 347 18334020462714637178
21054139 6 18270675480461646911
21133410 32 16017825482485339795
21133410 62 17974260391810389423
21133410 90 16408467997111689467
21197605 99 18120668078514263979
21421861 104 18265055730482246049
21583282 1 17242184659263187308
21796203 349 17475554614361811451
22956985 138 17898846843175537890
23559900 14 17834387921950730797
283562 15 18413953884049138096
3383291 50 18410571748650539482
3737641 26 18268721519481783197
38695281 34 18411418440156923191
59755656 215 18336551520906568660
6669772 16 18341899567825183166

> <PUBCHEM_SHAPE_MULTIPOLES>
563.01
10.15
6.22
1.11
9.15
7.99
0.28
-5.92
-0.52
-4.02
-0.19
0.25
0.85
-1.05

> <PUBCHEM_SHAPE_SELFOVERLAP>
1237.59

> <PUBCHEM_SHAPE_VOLUME>
302.8

> <PUBCHEM_COORDINATE_TYPE>
2
5
10

$$$$
