54677971
  -OEChem-09252021043D

 33 35  0     1  0  0  0  0  0999 V2000
   -2.5574    1.5731    0.2630 S   0  0  0  0  0  0  0  0  0  0  0  0
   -3.5817   -2.4609    0.0901 S   0  0  0  0  0  0  0  0  0  0  0  0
   -3.4452    2.3934   -0.5361 O   0  0  0  0  0  0  0  0  0  0  0  0
   -2.3057    1.8494    1.6627 O   0  0  0  0  0  0  0  0  0  0  0  0
   -0.6717   -2.3828   -0.3760 O   0  0  0  0  0  0  0  0  0  0  0  0
    1.3339   -0.1661   -2.0367 O   0  0  0  0  0  0  0  0  0  0  0  0
   -1.0789    1.3384   -0.5664 N   0  0  2  0  0  0  0  0  0  0  0  0
    1.7556   -0.0170    0.2753 N   0  0  0  0  0  0  0  0  0  0  0  0
    3.7498   -0.0127    1.5726 N   0  0  0  0  0  0  0  0  0  0  0  0
   -3.3260    0.0513    0.2870 C   0  0  0  0  0  0  0  0  0  0  0  0
   -0.4627    0.0224   -0.5566 C   0  0  0  0  0  0  0  0  0  0  0  0
   -2.5769   -1.0627   -0.0037 C   0  0  0  0  0  0  0  0  0  0  0  0
   -1.1849   -1.0998   -0.3270 C   0  0  0  0  0  0  0  0  0  0  0  0
   -4.6832   -0.1946    0.5939 C   0  0  0  0  0  0  0  0  0  0  0  0
   -0.2682    2.5569   -0.8077 C   0  0  0  0  0  0  0  0  0  0  0  0
    0.9751   -0.0649   -0.8683 C   0  0  0  0  0  0  0  0  0  0  0  0
   -4.9605   -1.5402    0.5199 C   0  0  0  0  0  0  0  0  0  0  0  0
    3.1685   -0.0751    0.3537 C   0  0  0  0  0  0  0  0  0  0  0  0
    3.8700   -0.1934   -0.8352 C   0  0  0  0  0  0  0  0  0  0  0  0
    5.2577   -0.2518   -0.7689 C   0  0  0  0  0  0  0  0  0  0  0  0
    5.1002   -0.0722    1.5975 C   0  0  0  0  0  0  0  0  0  0  0  0
    5.8922   -0.1907    0.4669 C   0  0  0  0  0  0  0  0  0  0  0  0
   -5.4192    0.5555    0.8523 H   0  0  0  0  0  0  0  0  0  0  0  0
    0.4482    2.7056    0.0052 H   0  0  0  0  0  0  0  0  0  0  0  0
    0.2654    2.4741   -1.7593 H   0  0  0  0  0  0  0  0  0  0  0  0
   -0.9066    3.4430   -0.8770 H   0  0  0  0  0  0  0  0  0  0  0  0
   -5.9077   -2.0294    0.6986 H   0  0  0  0  0  0  0  0  0  0  0  0
    1.2917    0.0710    1.1767 H   0  0  0  0  0  0  0  0  0  0  0  0
    0.2728   -2.3367   -0.5987 H   0  0  0  0  0  0  0  0  0  0  0  0
    3.4483   -0.2463   -1.8255 H   0  0  0  0  0  0  0  0  0  0  0  0
    5.8451   -0.3446   -1.6775 H   0  0  0  0  0  0  0  0  0  0  0  0
    5.5463   -0.0205    2.5852 H   0  0  0  0  0  0  0  0  0  0  0  0
    6.9727   -0.2343    0.5426 H   0  0  0  0  0  0  0  0  0  0  0  0
  1  3  2  0  0  0  0
  1  4  2  0  0  0  0
  1  7  1  0  0  0  0
  1 10  1  0  0  0  0
  2 12  1  0  0  0  0
  2 17  1  0  0  0  0
  5 13  1  0  0  0  0
  5 29  1  0  0  0  0
  6 16  2  0  0  0  0
  7 11  1  0  0  0  0
  7 15  1  0  0  0  0
  8 16  1  0  0  0  0
  8 18  1  0  0  0  0
  8 28  1  0  0  0  0
  9 18  1  0  0  0  0
  9 21  2  0  0  0  0
 10 12  2  0  0  0  0
 10 14  1  0  0  0  0
 11 13  2  0  0  0  0
 11 16  1  0  0  0  0
 12 13  1  0  0  0  0
 14 17  2  0  0  0  0
 14 23  1  0  0  0  0
 15 24  1  0  0  0  0
 15 25  1  0  0  0  0
 15 26  1  0  0  0  0
 17 27  1  0  0  0  0
 18 19  2  0  0  0  0
 19 20  1  0  0  0  0
 19 30  1  0  0  0  0
 20 22  2  0  0  0  0
 20 31  1  0  0  0  0
 21 22  1  0  0  0  0
 21 32  1  0  0  0  0
 22 33  1  0  0  0  0
M  END
> <PUBCHEM_COMPOUND_CID>
54677971

> <PUBCHEM_CONFORMER_RMSD>
0.6

> <PUBCHEM_CONFORMER_DIVERSEORDER>
1
6
7
3
5
2
4
10
9
8

> <PUBCHEM_MMFF94_PARTIAL_CHARGES>
30
1 1.5
10 -0.06
11 0.21
12 -0.01
13 0.12
14 -0.15
15 0.36
16 0.62
17 -0.11
18 0.43
19 -0.15
2 -0.08
20 -0.15
21 0.16
22 -0.15
23 0.15
27 0.15
28 0.37
29 0.45
3 -0.65
30 0.15
31 0.15
32 0.15
33 0.15
4 -0.65
5 -0.53
6 -0.57
7 -0.68
8 -0.55
9 -0.62

> <PUBCHEM_EFFECTIVE_ROTOR_COUNT>
3.2

> <PUBCHEM_PHARMACOPHORE_FEATURES>
9
1 3 acceptor
1 4 acceptor
1 5 donor
1 6 acceptor
1 8 donor
1 9 acceptor
5 2 10 12 14 17 rings
6 1 7 10 11 12 13 rings
6 9 18 19 20 21 22 rings

> <PUBCHEM_HEAVY_ATOM_COUNT>
22

> <PUBCHEM_ATOM_DEF_STEREO_COUNT>
0

> <PUBCHEM_ATOM_UDEF_STEREO_COUNT>
0

> <PUBCHEM_BOND_DEF_STEREO_COUNT>
0

> <PUBCHEM_BOND_UDEF_STEREO_COUNT>
0

> <PUBCHEM_ISOTOPIC_ATOM_COUNT>
0

> <PUBCHEM_COMPONENT_COUNT>
1

> <PUBCHEM_CACTVS_TAUTO_COUNT>
8

> <PUBCHEM_CONFORMER_ID>
034251D300000001

> <PUBCHEM_MMFF94_ENERGY>
66.552

> <PUBCHEM_FEATURE_SELFOVERLAP>
45.732

> <PUBCHEM_SHAPE_FINGERPRINT>
10 15 17988632039592350802
10319926 262 18269548348279420538
11045977 3 18060698407483774585
11315181 36 18113617898034008836
11370993 144 17202779106524416463
11595378 159 18335695014554965474
12107183 9 17611456442077098114
12236239 1 17603870009303201510
12403259 415 17775571922740020596
12596602 18 18114461253575163896
12633257 1 18059584627953432009
13140716 1 18195541504840428163
13583140 156 18200296750442814798
13675066 3 17918274264323394726
13862211 1 18336827606321977111
14178342 30 18269572554430121105
14341114 176 18272936046330008944
14420673 8 17904194833510841594
14849402 71 18042120033716658132
15099037 37 18412827988705502021
16945 1 18337123319431155159
17349148 13 17894636971449076278
17804303 29 18341897432577128785
17844677 252 18342181081250604448
1813 80 17167867431058526302
18222031 100 18337105773582545710
19377110 9 17821998840547786624
19489759 90 18411980256297189179
19784866 240 16732702761544948803
200 152 16515400772446613372
20600515 1 18270411601755003349
20645477 56 17560796658633802774
20645477 70 14923932441352937418
21033648 144 14835822016188315848
21033648 29 17203316793738451976
21267235 1 18261966218392601470
21792961 116 17632302242912388622
22182313 1 18200889365783030975
2297311 6 18340497703104608268
23366157 5 17681560560340392629
23402539 116 18342735247726964671
23557571 272 18271818899091755436
23559900 14 18198354957311238046
2748010 2 17977405845426108695
2838139 119 15195013670163637297
3009799 131 18337094732044463279
335352 9 18408042936193345127
351380 3 17676485072890264674
5104073 3 18271526373739562650
57724786 102 16271641308543954400
602551 16 18411138052408611010
633830 44 14045750348005877772
90316 7 18187926132007621252

> <PUBCHEM_SHAPE_MULTIPOLES>
422.03
11.87
2.23
1.29
11.94
0.62
0.13
-3.28
3.49
-3.43
-0.19
1.14
0.19
-0.08

> <PUBCHEM_SHAPE_SELFOVERLAP>
895.646

> <PUBCHEM_SHAPE_VOLUME>
237.2

> <PUBCHEM_COORDINATE_TYPE>
2
5
10

$$$$
