5406
  -OEChem-09252021043D

 53 56  0     1  0  0  0  0  0999 V2000
   -3.3862    0.8307   -1.5661 O   0  0  0  0  0  0  0  0  0  0  0  0
    0.3533   -2.6427   -0.9176 N   0  0  2  0  0  0  0  0  0  0  0  0
   -2.5114   -0.4697    0.1165 N   0  0  0  0  0  0  0  0  0  0  0  0
    4.8280    0.5872    1.5234 N   0  0  0  0  0  0  0  0  0  0  0  0
   -4.5741    0.6373    0.4220 N   0  0  0  0  0  0  0  0  0  0  0  0
    1.0723   -0.2580   -1.1127 C   0  0  1  0  0  0  0  0  0  0  0  0
    1.4840   -1.7247   -0.6761 C   0  0  1  0  0  0  0  0  0  0  0  0
   -0.2117    0.1822   -0.3968 C   0  0  0  0  0  0  0  0  0  0  0  0
   -1.3226   -0.8454   -0.6110 C   0  0  1  0  0  0  0  0  0  0  0  0
    2.1125   -1.8189    0.7699 C   0  0  0  0  0  0  0  0  0  0  0  0
   -0.8709   -2.2537   -0.2109 C   0  0  0  0  0  0  0  0  0  0  0  0
    2.1914    0.7248   -0.8430 C   0  0  0  0  0  0  0  0  0  0  0  0
    3.1069    0.4044    0.1646 C   0  0  0  0  0  0  0  0  0  0  0  0
    3.1453   -0.7582    0.9599 C   0  0  0  0  0  0  0  0  0  0  0  0
    4.1531    1.2366    0.5125 C   0  0  0  0  0  0  0  0  0  0  0  0
    0.6846   -4.0420   -0.6645 C   0  0  0  0  0  0  0  0  0  0  0  0
    2.3681    1.9511   -1.4914 C   0  0  0  0  0  0  0  0  0  0  0  0
    4.2236   -0.6229    1.8027 C   0  0  0  0  0  0  0  0  0  0  0  0
    4.3487    2.4604   -0.1289 C   0  0  0  0  0  0  0  0  0  0  0  0
    3.4303    2.7979   -1.1389 C   0  0  0  0  0  0  0  0  0  0  0  0
   -3.4858    0.3645   -0.4271 C   0  0  0  0  0  0  0  0  0  0  0  0
   -5.6754    1.4998    0.0148 C   0  0  0  0  0  0  0  0  0  0  0  0
   -4.6690    0.0732    1.7662 C   0  0  0  0  0  0  0  0  0  0  0  0
   -6.7782    0.7009   -0.6590 C   0  0  0  0  0  0  0  0  0  0  0  0
   -4.0170    0.9852    2.7916 C   0  0  0  0  0  0  0  0  0  0  0  0
    0.8893   -0.2732   -2.1966 H   0  0  0  0  0  0  0  0  0  0  0  0
    2.2855   -2.0184   -1.3724 H   0  0  0  0  0  0  0  0  0  0  0  0
   -0.0288    0.3144    0.6786 H   0  0  0  0  0  0  0  0  0  0  0  0
   -0.5337    1.1641   -0.7680 H   0  0  0  0  0  0  0  0  0  0  0  0
   -1.5740   -0.8583   -1.6804 H   0  0  0  0  0  0  0  0  0  0  0  0
    2.5747   -2.8017    0.9163 H   0  0  0  0  0  0  0  0  0  0  0  0
    1.3411   -1.6938    1.5379 H   0  0  0  0  0  0  0  0  0  0  0  0
   -0.7404   -2.3203    0.8770 H   0  0  0  0  0  0  0  0  0  0  0  0
   -1.6787   -2.9532   -0.4647 H   0  0  0  0  0  0  0  0  0  0  0  0
    0.8243   -4.2568    0.4003 H   0  0  0  0  0  0  0  0  0  0  0  0
    1.5949   -4.3305   -1.2014 H   0  0  0  0  0  0  0  0  0  0  0  0
   -0.1145   -4.6935   -1.0359 H   0  0  0  0  0  0  0  0  0  0  0  0
   -2.5136   -0.6904    1.1036 H   0  0  0  0  0  0  0  0  0  0  0  0
    1.6797    2.2574   -2.2749 H   0  0  0  0  0  0  0  0  0  0  0  0
    4.6239   -1.2667    2.5732 H   0  0  0  0  0  0  0  0  0  0  0  0
    5.6481    0.9433    1.9945 H   0  0  0  0  0  0  0  0  0  0  0  0
    5.1651    3.1226    0.1355 H   0  0  0  0  0  0  0  0  0  0  0  0
    3.5464    3.7454   -1.6607 H   0  0  0  0  0  0  0  0  0  0  0  0
   -6.0607    2.0434    0.8839 H   0  0  0  0  0  0  0  0  0  0  0  0
   -5.2941    2.2425   -0.6948 H   0  0  0  0  0  0  0  0  0  0  0  0
   -5.7302   -0.0478    2.0158 H   0  0  0  0  0  0  0  0  0  0  0  0
   -4.2476   -0.9347    1.8110 H   0  0  0  0  0  0  0  0  0  0  0  0
   -6.4007    0.1760   -1.5428 H   0  0  0  0  0  0  0  0  0  0  0  0
   -7.1964   -0.0491    0.0200 H   0  0  0  0  0  0  0  0  0  0  0  0
   -7.5888    1.3642   -0.9757 H   0  0  0  0  0  0  0  0  0  0  0  0
   -2.9526    1.1282    2.5793 H   0  0  0  0  0  0  0  0  0  0  0  0
   -4.4887    1.9732    2.8012 H   0  0  0  0  0  0  0  0  0  0  0  0
   -4.1098    0.5556    3.7938 H   0  0  0  0  0  0  0  0  0  0  0  0
  1 21  2  0  0  0  0
  2  7  1  0  0  0  0
  2 11  1  0  0  0  0
  2 16  1  0  0  0  0
  3  9  1  0  0  0  0
  3 21  1  0  0  0  0
  3 38  1  0  0  0  0
  4 15  1  0  0  0  0
  4 18  1  0  0  0  0
  4 41  1  0  0  0  0
  5 21  1  0  0  0  0
  5 22  1  0  0  0  0
  5 23  1  0  0  0  0
  6  7  1  0  0  0  0
  6  8  1  0  0  0  0
  6 12  1  0  0  0  0
  6 26  1  0  0  0  0
  7 10  1  0  0  0  0
  7 27  1  0  0  0  0
  8  9  1  0  0  0  0
  8 28  1  0  0  0  0
  8 29  1  0  0  0  0
  9 11  1  0  0  0  0
  9 30  1  0  0  0  0
 10 14  1  0  0  0  0
 10 31  1  0  0  0  0
 10 32  1  0  0  0  0
 11 33  1  0  0  0  0
 11 34  1  0  0  0  0
 12 13  2  0  0  0  0
 12 17  1  0  0  0  0
 13 14  1  0  0  0  0
 13 15  1  0  0  0  0
 14 18  2  0  0  0  0
 15 19  2  0  0  0  0
 16 35  1  0  0  0  0
 16 36  1  0  0  0  0
 16 37  1  0  0  0  0
 17 20  2  0  0  0  0
 17 39  1  0  0  0  0
 18 40  1  0  0  0  0
 19 20  1  0  0  0  0
 19 42  1  0  0  0  0
 20 43  1  0  0  0  0
 22 24  1  0  0  0  0
 22 44  1  0  0  0  0
 22 45  1  0  0  0  0
 23 25  1  0  0  0  0
 23 46  1  0  0  0  0
 23 47  1  0  0  0  0
 24 48  1  0  0  0  0
 24 49  1  0  0  0  0
 24 50  1  0  0  0  0
 25 51  1  0  0  0  0
 25 52  1  0  0  0  0
 25 53  1  0  0  0  0
M  END
> <PUBCHEM_COMPOUND_CID>
5406

> <PUBCHEM_CONFORMER_RMSD>
0.8

> <PUBCHEM_CONFORMER_DIVERSEORDER>
1
9
44
36
24
4
46
58
31
38
26
53
34
49
11
42
7
54
51
35
14
30
28
13
23
25
41
50
22
45
39
60
43
57
56
52
18
20
6
37
15
59
47
5
21
2
55
3
61
29
48
16
12
17
19
8
27
40
32
10
33

> <PUBCHEM_MMFF94_PARTIAL_CHARGES>
27
1 -0.57
10 0.18
11 0.27
12 -0.14
14 -0.18
15 -0.15
16 0.27
17 -0.15
18 -0.3
19 -0.15
2 -0.81
20 -0.15
21 0.69
22 0.3
23 0.3
3 -0.73
38 0.37
39 0.15
4 0.03
40 0.15
41 0.27
42 0.15
43 0.15
5 -0.66
6 0.14
7 0.27
9 0.3

> <PUBCHEM_EFFECTIVE_ROTOR_COUNT>
6

> <PUBCHEM_PHARMACOPHORE_FEATURES>
9
1 1 acceptor
1 2 cation
1 3 donor
1 4 cation
1 4 donor
5 4 13 14 15 18 rings
6 12 13 15 17 19 20 rings
6 2 6 7 8 9 11 rings
6 6 7 10 12 13 14 rings

> <PUBCHEM_HEAVY_ATOM_COUNT>
25

> <PUBCHEM_ATOM_DEF_STEREO_COUNT>
0

> <PUBCHEM_ATOM_UDEF_STEREO_COUNT>
3

> <PUBCHEM_BOND_DEF_STEREO_COUNT>
0

> <PUBCHEM_BOND_UDEF_STEREO_COUNT>
0

> <PUBCHEM_ISOTOPIC_ATOM_COUNT>
0

> <PUBCHEM_COMPONENT_COUNT>
1

> <PUBCHEM_CACTVS_TAUTO_COUNT>
2

> <PUBCHEM_CONFORMER_ID>
0000151E00000001

> <PUBCHEM_MMFF94_ENERGY>
51.2495

> <PUBCHEM_FEATURE_SELFOVERLAP>
45.945

> <PUBCHEM_SHAPE_FINGERPRINT>
10042902 136 13695879146176347472
10498660 4 15769783407668972641
10670039 82 17489040287532130160
10928967 22 7853574561352466569
11045977 3 17167864153602444201
11049842 53 15336321719312950127
12390115 104 18197794386342131342
12403259 327 16877944936016866210
12422481 6 18114174220520804061
12633257 1 17822006523257672963
12788726 201 17838890787007520559
12892183 10 17313101981525739972
13140716 1 18261671562361829942
13540713 5 18045768251450359134
13583140 156 17023445487432562943
13631057 29 17987506182815120303
13965767 371 18261946449191024788
14223995 32 16591660528755815693
14739800 52 17059760127436663731
15183329 4 8070035476253692195
15188451 53 15357983429851342265
15238133 3 18200868582758330976
15475509 35 15792279411347179608
15475509 8 18410865344034755628
17810953 82 18409448072402340100
19377110 9 18272658957042571099
1979834 28 18334868190590729677
20157964 124 18409727323440196085
20626108 58 12396303698425211699
20715895 44 18191860133546995213
20739085 24 18265897956494740586
21033650 10 16415217662316976809
21049683 271 18051983524215727438
21859007 373 16589131738026567493
221357 26 10663819672490512639
22149856 69 18200893811897335859
22950370 63 8935006992494102189
23559900 14 18264503788583349423
23569917 315 18272088313938651143
3472631 163 17131257073602431064
34797466 226 14692281876957267697
351380 3 11169912775611679065
4098825 35 13182752437091988355
474 4 18342740697897934127
5104073 3 18043236028562902480
5281201 14 13254800114266746481
6058803 2 17829595508049251374
633830 44 17988934357138071847
7064713 232 18268414888923739994
960060 61 10447927252603553633

> <PUBCHEM_SHAPE_MULTIPOLES>
488.69
12.45
3.12
1.77
17.45
2.22
1.07
-8.8
3.79
-2.8
-1.22
0.65
-0.38
-1

> <PUBCHEM_SHAPE_SELFOVERLAP>
1047.774

> <PUBCHEM_SHAPE_VOLUME>
269.9

> <PUBCHEM_COORDINATE_TYPE>
2
5
10

$$$$
