5478
  -OEChem-09252021043D

 45 46  0     1  0  0  0  0  0999 V2000
    2.3968   -3.2134    1.1062 S   0  0  0  0  0  0  0  0  0  0  0  0
    2.8696    3.1675   -0.2779 O   0  0  0  0  0  0  0  0  0  0  0  0
    0.1281   -0.9516   -0.7046 O   0  0  0  0  0  0  0  0  0  0  0  0
   -1.3188   -0.3672   -3.0059 O   0  0  0  0  0  0  0  0  0  0  0  0
   -3.2498   -0.4206    0.1491 N   0  0  0  0  0  0  0  0  0  0  0  0
    2.4798    0.4523    0.3509 N   0  0  0  0  0  0  0  0  0  0  0  0
    3.1177   -1.7007    1.1925 N   0  0  0  0  0  0  0  0  0  0  0  0
    1.0183   -2.8404    0.2253 N   0  0  0  0  0  0  0  0  0  0  0  0
   -3.8556    0.6584    0.9363 C   0  0  0  0  0  0  0  0  0  0  0  0
   -2.6027    0.1139   -1.0369 C   0  0  0  0  0  0  0  0  0  0  0  0
   -1.9613   -0.9853   -1.8873 C   0  0  2  0  0  0  0  0  0  0  0  0
    1.4365    1.4395    0.6520 C   0  0  0  0  0  0  0  0  0  0  0  0
    3.8344    1.0161    0.2727 C   0  0  0  0  0  0  0  0  0  0  0  0
   -4.9060    1.3814    0.0851 C   0  0  0  0  0  0  0  0  0  0  0  0
   -2.7523    1.6364    1.3541 C   0  0  0  0  0  0  0  0  0  0  0  0
   -4.5139    0.0470    2.1778 C   0  0  0  0  0  0  0  0  0  0  0  0
    1.5536    2.6148   -0.3138 C   0  0  0  0  0  0  0  0  0  0  0  0
    3.8374    2.1996   -0.6864 C   0  0  0  0  0  0  0  0  0  0  0  0
   -0.9259   -1.8112   -1.1272 C   0  0  0  0  0  0  0  0  0  0  0  0
    2.2804   -0.8985    0.5312 C   0  0  0  0  0  0  0  0  0  0  0  0
    1.1337   -1.5381    0.0067 C   0  0  0  0  0  0  0  0  0  0  0  0
   -3.9625   -1.0970   -0.1239 H   0  0  0  0  0  0  0  0  0  0  0  0
   -3.3035    0.6322   -1.7001 H   0  0  0  0  0  0  0  0  0  0  0  0
   -1.8099    0.8315   -0.8034 H   0  0  0  0  0  0  0  0  0  0  0  0
   -2.7418   -1.6487   -2.2789 H   0  0  0  0  0  0  0  0  0  0  0  0
    0.4235    1.0325    0.6107 H   0  0  0  0  0  0  0  0  0  0  0  0
    1.5942    1.7953    1.6781 H   0  0  0  0  0  0  0  0  0  0  0  0
    4.5577    0.2711   -0.0789 H   0  0  0  0  0  0  0  0  0  0  0  0
    4.1387    1.3408    1.2750 H   0  0  0  0  0  0  0  0  0  0  0  0
   -5.5989    0.6769   -0.3901 H   0  0  0  0  0  0  0  0  0  0  0  0
   -5.5117    2.0437    0.7163 H   0  0  0  0  0  0  0  0  0  0  0  0
   -4.4755    2.0223   -0.6912 H   0  0  0  0  0  0  0  0  0  0  0  0
   -2.3994    2.2781    0.5401 H   0  0  0  0  0  0  0  0  0  0  0  0
   -1.8906    1.1149    1.7877 H   0  0  0  0  0  0  0  0  0  0  0  0
   -3.1278    2.3192    2.1268 H   0  0  0  0  0  0  0  0  0  0  0  0
   -3.7819   -0.4875    2.7947 H   0  0  0  0  0  0  0  0  0  0  0  0
   -4.9718    0.8204    2.8050 H   0  0  0  0  0  0  0  0  0  0  0  0
   -5.3020   -0.6642    1.9034 H   0  0  0  0  0  0  0  0  0  0  0  0
    1.3136    2.3118   -1.3402 H   0  0  0  0  0  0  0  0  0  0  0  0
    0.8508    3.4036   -0.0275 H   0  0  0  0  0  0  0  0  0  0  0  0
    4.8192    2.6834   -0.6815 H   0  0  0  0  0  0  0  0  0  0  0  0
    3.6251    1.8840   -1.7150 H   0  0  0  0  0  0  0  0  0  0  0  0
   -1.3968   -2.3098   -0.2712 H   0  0  0  0  0  0  0  0  0  0  0  0
   -0.5185   -2.5682   -1.8104 H   0  0  0  0  0  0  0  0  0  0  0  0
   -0.9456   -1.0757   -3.5575 H   0  0  0  0  0  0  0  0  0  0  0  0
  1  7  1  0  0  0  0
  1  8  1  0  0  0  0
  2 17  1  0  0  0  0
  2 18  1  0  0  0  0
  3 19  1  0  0  0  0
  3 21  1  0  0  0  0
  4 11  1  0  0  0  0
  4 45  1  0  0  0  0
  5  9  1  0  0  0  0
  5 10  1  0  0  0  0
  5 22  1  0  0  0  0
  6 12  1  0  0  0  0
  6 13  1  0  0  0  0
  6 20  1  0  0  0  0
  7 20  2  0  0  0  0
  8 21  2  0  0  0  0
  9 14  1  0  0  0  0
  9 15  1  0  0  0  0
  9 16  1  0  0  0  0
 10 11  1  0  0  0  0
 10 23  1  0  0  0  0
 10 24  1  0  0  0  0
 11 19  1  0  0  0  0
 11 25  1  0  0  0  0
 12 17  1  0  0  0  0
 12 26  1  0  0  0  0
 12 27  1  0  0  0  0
 13 18  1  0  0  0  0
 13 28  1  0  0  0  0
 13 29  1  0  0  0  0
 14 30  1  0  0  0  0
 14 31  1  0  0  0  0
 14 32  1  0  0  0  0
 15 33  1  0  0  0  0
 15 34  1  0  0  0  0
 15 35  1  0  0  0  0
 16 36  1  0  0  0  0
 16 37  1  0  0  0  0
 16 38  1  0  0  0  0
 17 39  1  0  0  0  0
 17 40  1  0  0  0  0
 18 41  1  0  0  0  0
 18 42  1  0  0  0  0
 19 43  1  0  0  0  0
 19 44  1  0  0  0  0
 20 21  1  0  0  0  0
M  END
> <PUBCHEM_COMPOUND_CID>
5478

> <PUBCHEM_CONFORMER_RMSD>
1

> <PUBCHEM_CONFORMER_DIVERSEORDER>
1
8
10
16
45
26
27
17
15
29
36
5
28
11
18
44
31
39
43
32
40
46
4
22
33
34
14
2
41
21
20
25
19
12
37
35
7
9
30
6
23
13
24
3
38
42

> <PUBCHEM_MMFF94_PARTIAL_CHARGES>
20
1 0.44
10 0.27
11 0.28
12 0.37
13 0.37
17 0.28
18 0.28
19 0.28
2 -0.56
20 0.37
21 0.35
22 0.36
3 -0.34
4 -0.68
45 0.4
5 -0.9
6 -0.82
7 -0.51
8 -0.51
9 0.27

> <PUBCHEM_EFFECTIVE_ROTOR_COUNT>
8.2

> <PUBCHEM_PHARMACOPHORE_FEATURES>
9
1 2 acceptor
1 4 acceptor
1 4 donor
1 5 cation
1 5 donor
3 6 7 20 cation
4 9 14 15 16 hydrophobe
5 1 7 8 20 21 rings
6 2 6 12 13 17 18 rings

> <PUBCHEM_HEAVY_ATOM_COUNT>
21

> <PUBCHEM_ATOM_DEF_STEREO_COUNT>
0

> <PUBCHEM_ATOM_UDEF_STEREO_COUNT>
1

> <PUBCHEM_BOND_DEF_STEREO_COUNT>
0

> <PUBCHEM_BOND_UDEF_STEREO_COUNT>
0

> <PUBCHEM_ISOTOPIC_ATOM_COUNT>
0

> <PUBCHEM_COMPONENT_COUNT>
1

> <PUBCHEM_CACTVS_TAUTO_COUNT>
1

> <PUBCHEM_CONFORMER_ID>
0000156600000001

> <PUBCHEM_MMFF94_ENERGY>
45.1476

> <PUBCHEM_FEATURE_SELFOVERLAP>
45.67

> <PUBCHEM_SHAPE_FINGERPRINT>
10382601 240 18410014325559794444
11640471 11 18060136561315667041
12422481 6 18053355757797424370
12553582 1 18121202204878844842
12633257 1 18040708147866522931
13009979 54 17987777658079375570
13583140 156 18188493467660221531
13828863 39 17752784677024407340
14123250 116 17981883352277894852
14251751 93 17916596486567066557
14251757 17 16914293660987280292
14251764 38 18123186797824367925
14341114 328 18272662255408799019
14787075 74 17835796774762437959
14790565 3 18262806301760260964
15842332 3 18200572787611803191
17357990 137 18059849545667958774
1813 80 17983015544840152414
18219364 16 17969764423515918156
18785283 64 18113623404382600954
20510252 161 17254262944316546070
20715895 44 17623853419097405089
20739085 24 18267015064709225074
21041028 32 18047464526897718466
21427221 339 18201159841000245281
21475661 188 18046621201738054141
21503847 285 18342462491322835502
21665062 11 18339078168704747514
21756936 100 18126572447180401904
21864079 5 18343020008079031541
22182937 141 17975696413581408586
23557571 272 14835254698063282655
23558518 356 17623285383016228248
23559900 14 17023475127344926455
23598291 2 18201708544515705526
23845131 108 18115867571681199163
2637199 183 18269286797180930476
31174 14 18114742629398737899
3797600 57 17987253281596108995
38570 142 18268732626320198740
4098825 35 11095884861353471387
4409770 3 14960003741231638799
458136 41 18114463448419697862
474 4 18409442622062058275
5048184 11 18341332300822986801
513202 73 17259622543695782850
5161694 15 14476967812817952925
539174 4 18411972576980112149
53917941 68 18052824934068014408
621550 5 17388547003601867166
633830 44 18340769368349810196
7064713 232 17273127991221619449
7615 1 17986928865220017527
81228 2 16598989220193546170

> <PUBCHEM_SHAPE_MULTIPOLES>
398.49
8.52
3.48
1.84
6.69
0.15
-0.83
-3.81
3.21
-4.53
0.36
1.89
0.56
-1.78

> <PUBCHEM_SHAPE_SELFOVERLAP>
792.37

> <PUBCHEM_SHAPE_VOLUME>
239.7

> <PUBCHEM_COORDINATE_TYPE>
2
5
10

$$$$
