60831
  -OEChem-09252021043D

 48 52  0     1  0  0  0  0  0999 V2000
    2.7159   -2.7297   -0.8026 S   0  0  0  0  0  0  0  0  0  0  0  0
    2.6509    2.0908    1.2032 S   0  0  0  0  0  0  0  0  0  0  0  0
   -5.2719    0.5166    1.5367 O   0  0  0  0  0  0  0  0  0  0  0  0
   -0.1982    0.4894   -0.4837 O   0  0  0  0  0  0  0  0  0  0  0  0
    0.5920   -0.6032    1.3806 O   0  0  0  0  0  0  0  0  0  0  0  0
    1.8356   -0.1981   -1.8410 O   0  0  0  0  0  0  0  0  0  0  0  0
   -4.1067   -0.5621   -0.7905 N   0  3  0  0  0  0  0  0  0  0  0  0
   -3.9486    0.9767   -0.5759 C   0  0  1  0  0  0  0  0  0  0  0  0
   -3.5009   -1.0213    0.5738 C   0  0  2  0  0  0  0  0  0  0  0  0
   -4.2359    1.2565    0.8923 C   0  0  2  0  0  0  0  0  0  0  0  0
   -3.9511   -0.0165    1.6248 C   0  0  1  0  0  0  0  0  0  0  0  0
   -2.4621    1.3259   -0.8238 C   0  0  0  0  0  0  0  0  0  0  0  0
   -1.9628   -0.9021    0.4583 C   0  0  0  0  0  0  0  0  0  0  0  0
   -1.4988    0.5303    0.0941 C   0  0  0  0  0  0  0  0  0  0  0  0
   -3.4424   -1.1346   -2.0455 C   0  0  0  0  0  0  0  0  0  0  0  0
   -5.5831   -0.9747   -0.9330 C   0  0  0  0  0  0  0  0  0  0  0  0
    0.7752   -0.1138    0.2720 C   0  0  0  0  0  0  0  0  0  0  0  0
    2.1244   -0.0583   -0.4455 C   0  0  0  0  0  0  0  0  0  0  0  0
    2.9710   -1.2610   -0.0135 C   0  0  0  0  0  0  0  0  0  0  0  0
    2.8349    1.2867   -0.2689 C   0  0  0  0  0  0  0  0  0  0  0  0
    3.9142   -1.2770    0.9451 C   0  0  0  0  0  0  0  0  0  0  0  0
    3.6061    1.9150   -1.1753 C   0  0  0  0  0  0  0  0  0  0  0  0
    4.4820   -2.5790    1.0570 C   0  0  0  0  0  0  0  0  0  0  0  0
    4.0910    3.1452   -0.6446 C   0  0  0  0  0  0  0  0  0  0  0  0
    3.9216   -3.4664    0.1648 C   0  0  0  0  0  0  0  0  0  0  0  0
    3.6477    3.3646    0.6410 C   0  0  0  0  0  0  0  0  0  0  0  0
   -4.6258    1.4959   -1.2608 H   0  0  0  0  0  0  0  0  0  0  0  0
   -3.8334   -2.0440    0.7762 H   0  0  0  0  0  0  0  0  0  0  0  0
   -3.9355    2.2123    1.2879 H   0  0  0  0  0  0  0  0  0  0  0  0
   -3.4373   -0.0175    2.5716 H   0  0  0  0  0  0  0  0  0  0  0  0
   -2.1953    1.1915   -1.8784 H   0  0  0  0  0  0  0  0  0  0  0  0
   -2.3011    2.3969   -0.6397 H   0  0  0  0  0  0  0  0  0  0  0  0
   -1.5639   -1.1908    1.4373 H   0  0  0  0  0  0  0  0  0  0  0  0
   -1.5637   -1.6440   -0.2430 H   0  0  0  0  0  0  0  0  0  0  0  0
   -1.4166    1.1051    1.0279 H   0  0  0  0  0  0  0  0  0  0  0  0
   -2.3756   -0.9181   -2.0749 H   0  0  0  0  0  0  0  0  0  0  0  0
   -3.5877   -2.2193   -2.0393 H   0  0  0  0  0  0  0  0  0  0  0  0
   -3.9251   -0.6842   -2.9181 H   0  0  0  0  0  0  0  0  0  0  0  0
   -5.6248   -2.0674   -0.9771 H   0  0  0  0  0  0  0  0  0  0  0  0
   -6.1829   -0.6262   -0.0964 H   0  0  0  0  0  0  0  0  0  0  0  0
   -5.9672   -0.5373   -1.8597 H   0  0  0  0  0  0  0  0  0  0  0  0
    1.2730    0.5475   -2.1138 H   0  0  0  0  0  0  0  0  0  0  0  0
    4.2195   -0.4435    1.5616 H   0  0  0  0  0  0  0  0  0  0  0  0
    3.8374    1.5479   -2.1667 H   0  0  0  0  0  0  0  0  0  0  0  0
    5.2613   -2.8512    1.7570 H   0  0  0  0  0  0  0  0  0  0  0  0
    4.7333    3.8337   -1.1782 H   0  0  0  0  0  0  0  0  0  0  0  0
    4.1623   -4.5121    0.0351 H   0  0  0  0  0  0  0  0  0  0  0  0
    3.8616    4.2120    1.2771 H   0  0  0  0  0  0  0  0  0  0  0  0
  1 19  1  0  0  0  0
  1 25  1  0  0  0  0
  2 20  1  0  0  0  0
  2 26  1  0  0  0  0
  3 10  1  0  0  0  0
  3 11  1  0  0  0  0
  4 14  1  0  0  0  0
  4 17  1  0  0  0  0
  5 17  2  0  0  0  0
  6 18  1  0  0  0  0
  6 42  1  0  0  0  0
  7  8  1  0  0  0  0
  7  9  1  0  0  0  0
  7 15  1  0  0  0  0
  7 16  1  0  0  0  0
  8 10  1  0  0  0  0
  8 12  1  0  0  0  0
  8 27  1  0  0  0  0
  9 11  1  0  0  0  0
  9 13  1  0  0  0  0
  9 28  1  0  0  0  0
 10 11  1  0  0  0  0
 10 29  1  0  0  0  0
 11 30  1  0  0  0  0
 12 14  1  0  0  0  0
 12 31  1  0  0  0  0
 12 32  1  0  0  0  0
 13 14  1  0  0  0  0
 13 33  1  0  0  0  0
 13 34  1  0  0  0  0
 14 35  1  0  0  0  0
 15 36  1  0  0  0  0
 15 37  1  0  0  0  0
 15 38  1  0  0  0  0
 16 39  1  0  0  0  0
 16 40  1  0  0  0  0
 16 41  1  0  0  0  0
 17 18  1  0  0  0  0
 18 19  1  0  0  0  0
 18 20  1  0  0  0  0
 19 21  2  0  0  0  0
 20 22  2  0  0  0  0
 21 23  1  0  0  0  0
 21 43  1  0  0  0  0
 22 24  1  0  0  0  0
 22 44  1  0  0  0  0
 23 25  2  0  0  0  0
 23 45  1  0  0  0  0
 24 26  2  0  0  0  0
 24 46  1  0  0  0  0
 25 47  1  0  0  0  0
 26 48  1  0  0  0  0
M  CHG  1   7   1
M  END
> <PUBCHEM_COMPOUND_CID>
60831

> <PUBCHEM_CONFORMER_RMSD>
0.8

> <PUBCHEM_CONFORMER_DIVERSEORDER>
4
290
315
235
322
252
183
107
27
301
213
186
86
276
353
62
179
61
188
350
255
310
98
97
46
319
296
54
232
58
178
198
256
81
312
284
241
330
43
200
174
99
224
204
272
52
291
89
134
332
338
24
324
80
230
26
92
60
316
207
208
260
160
352
293
50
101
150
30
222
169
244
227
308
106
161
139
202
321
167
307
129
333
42
168
327
249
254
270
326
29
216
258
16
331
250
127
257
184
302
219
329
328
282
225
171
193
289
7
273
236
124
210
304
175
251
163
303
187
37
217
309
283
15
226
314
9
132
334
40
288
337
77
149
47
197
35
102
264
194
74
317
79
231
126
297
246
165
229
269
300
120
199
91
341
287
96
142
21
153
121
278
267
306
247
48
313
100
45
294
215
36
177
285
11
346
180
345
114
68
292
239
34
201
277
31
348
206
259
128
63
71
123
351
266
76
22
154
115
323
228
108
212
85
268
248
263
223
111
94
189
83
347
343
23
125
344
155
190
159
136
205
148
118
78
238
17
69
295
243
112
203
274
191
66
192
173
336
299
298
151
196
147
220
109
113
340
318
90
176
320
335
162
73
182
49
103
5
286
157
218
44
233
305
143
119
242
25
209
146
211
14
53
70
339
1
279
262
245
10
261
140
122
152
138
65
240
55
13
170
181
265
195
88
271
72
281
105
59
117
275
280
135
253
110
214
311
12
95
166
82
38
145
20
32
28
56
349
156
131
342
234
144
84
8
87
221
18
185
237
75
325
51
104
164
158
93
67
3
41
64
172
33
6
57
137
141
39
2
116
133
19
130

> <PUBCHEM_MMFF94_PARTIAL_CHARGES>
33
1 -0.08
10 -0.05
11 -0.05
14 0.28
15 0.5
16 0.5
17 0.66
18 0.7
19 -0.14
2 -0.08
20 -0.14
21 -0.15
22 -0.15
23 -0.15
24 -0.15
25 -0.11
26 -0.11
29 0.1
3 -0.3
30 0.1
4 -0.43
42 0.4
43 0.15
44 0.15
45 0.15
46 0.15
47 0.15
48 0.15
5 -0.57
6 -0.68
7 -1.01
8 0.6
9 0.6

> <PUBCHEM_EFFECTIVE_ROTOR_COUNT>
6

> <PUBCHEM_PHARMACOPHORE_FEATURES>
9
1 3 acceptor
1 5 acceptor
1 6 acceptor
1 6 donor
1 7 cation
5 1 19 21 23 25 rings
5 2 20 22 24 26 rings
6 3 7 8 9 10 11 rings
8 7 8 9 10 11 12 13 14 rings

> <PUBCHEM_HEAVY_ATOM_COUNT>
26

> <PUBCHEM_ATOM_DEF_STEREO_COUNT>
0

> <PUBCHEM_ATOM_UDEF_STEREO_COUNT>
4

> <PUBCHEM_BOND_DEF_STEREO_COUNT>
0

> <PUBCHEM_BOND_UDEF_STEREO_COUNT>
0

> <PUBCHEM_ISOTOPIC_ATOM_COUNT>
0

> <PUBCHEM_COMPONENT_COUNT>
1

> <PUBCHEM_CACTVS_TAUTO_COUNT>
1

> <PUBCHEM_CONFORMER_ID>
0000ED9F00000004

> <PUBCHEM_MMFF94_ENERGY>
90.6514

> <PUBCHEM_FEATURE_SELFOVERLAP>
49.209

> <PUBCHEM_SHAPE_FINGERPRINT>
10366900 7 18269275840587892385
10369192 42 17461461383891805476
10912923 1 18131073749110779129
11049842 53 16556809389581680477
11370993 144 18334301933539013457
11405975 8 18338237059705671865
11475781 23 16733803369217509167
12107183 9 17982459200398213441
12516196 113 18266457608251259082
12616971 3 18343023259791332891
12633257 1 18201723907808726503
12730499 353 18265346160265276248
12788726 201 17488765388181674033
13224815 77 18410855490530776917
13533116 47 18411697708111573259
13583140 156 18339922730936383911
13631057 29 17839739606094962311
13955234 65 18408606976667591496
14739800 52 17703499000001231200
14950920 106 18265075582016189881
14955137 171 18343581812188924686
15238133 3 16988291858957006569
15250474 111 18131059472487202039
15788980 27 18335137532015920319
15842332 3 17988912409828887150
15927050 60 18123190367400269374
17349148 13 17632576011452180442
17818456 19 17630334025622813009
17844677 252 18336548214087517085
17868525 174 18265613169882266048
1813 80 18198909093965581974
18186145 218 17095526175567598659
18335252 98 18189898802745980819
18681886 176 17131557223666520412
18785283 64 18260547853515997192
19377110 9 18131066086614966027
20645477 70 18333443244600478686
20681651 13 18129952290089753883
21033648 29 17167853167350446589
21065201 7 16370728106253176673
21421861 104 18271259218020104336
21859007 373 17314770928898178989
22393880 68 18058456559251602508
23503953 91 17917993837160435715
23557571 272 17095510795163397669
23559900 14 18336537236029542528
268830 7 18411986853762659785
312423 11 18343302565529951475
314194 84 18262520273954523826
469060 322 17756715496082614395
474 4 18192715767824837540
5104073 3 18409457981482340065
5281201 14 18187646868796064956
5895379 119 17344366461918881448
5912855 24 18199470051117884087
59755656 215 18187082875951788596
633830 44 18113614560897109121
6442390 28 18049166858866117916
6443956 14 18193277395434434946
67856867 119 18342450461119251080
6823239 73 16371016191247865918
9709674 26 18334858298859313355
9841814 1 18262237716872518274
9981440 41 18048874388609496024

> <PUBCHEM_SHAPE_MULTIPOLES>
514.31
11.99
3.49
1.53
10.02
0.13
0.12
-0.8
-0.78
-7.42
-0.04
0.81
-0.05
-1.24

> <PUBCHEM_SHAPE_SELFOVERLAP>
1098.694

> <PUBCHEM_SHAPE_VOLUME>
290.7

> <PUBCHEM_COORDINATE_TYPE>
2
5
10

$$$$
