26618
  -OEChem-09252021053D

 38 39  0     0  0  0  0  0  0999 V2000
    5.2385   -0.8692   -0.2814 Cl  0  0  0  0  0  0  0  0  0  0  0  0
    3.5290    1.8734   -0.4124 S   0  0  0  0  0  0  0  0  0  0  0  0
    0.8990   -3.3172    0.5885 O   0  0  0  0  0  0  0  0  0  0  0  0
   -1.1805   -1.8164    1.2378 O   0  0  0  0  0  0  0  0  0  0  0  0
    4.7781    1.6496   -1.1224 O   0  0  0  0  0  0  0  0  0  0  0  0
    2.5236    2.7637   -0.9704 O   0  0  0  0  0  0  0  0  0  0  0  0
   -1.3996    0.0393   -0.1811 N   0  0  0  0  0  0  0  0  0  0  0  0
    3.8785    2.3666    1.1845 N   0  0  0  0  0  0  0  0  0  0  0  0
   -2.7949    0.2831   -0.1671 C   0  0  0  0  0  0  0  0  0  0  0  0
    0.7608   -0.9394    0.3034 C   0  0  0  0  0  0  0  0  0  0  0  0
   -3.6033   -0.3392   -1.1058 C   0  0  0  0  0  0  0  0  0  0  0  0
   -3.3263    1.1391    0.7849 C   0  0  0  0  0  0  0  0  0  0  0  0
    2.7815    0.3161   -0.1181 C   0  0  0  0  0  0  0  0  0  0  0  0
    1.3994    0.2777    0.0656 C   0  0  0  0  0  0  0  0  0  0  0  0
   -0.6832   -0.9577    0.4935 C   0  0  0  0  0  0  0  0  0  0  0  0
    1.5046   -2.1181    0.3577 C   0  0  0  0  0  0  0  0  0  0  0  0
    3.5253   -0.8628   -0.0639 C   0  0  0  0  0  0  0  0  0  0  0  0
   -4.9773   -0.0994   -1.0919 C   0  0  0  0  0  0  0  0  0  0  0  0
   -4.7003    1.3788    0.7987 C   0  0  0  0  0  0  0  0  0  0  0  0
    2.8869   -2.0798    0.1740 C   0  0  0  0  0  0  0  0  0  0  0  0
   -5.5260    0.7596   -0.1397 C   0  0  0  0  0  0  0  0  0  0  0  0
   -3.0457   -1.2645   -2.1384 C   0  0  0  0  0  0  0  0  0  0  0  0
   -2.4683    1.8168    1.8038 C   0  0  0  0  0  0  0  0  0  0  0  0
   -0.9157    0.5503   -0.9161 H   0  0  0  0  0  0  0  0  0  0  0  0
    0.8370    1.2072    0.0631 H   0  0  0  0  0  0  0  0  0  0  0  0
   -5.6355   -0.5740   -1.8151 H   0  0  0  0  0  0  0  0  0  0  0  0
   -5.1447    2.0443    1.5341 H   0  0  0  0  0  0  0  0  0  0  0  0
    3.4646   -3.0005    0.2172 H   0  0  0  0  0  0  0  0  0  0  0  0
   -6.5959    0.9459   -0.1286 H   0  0  0  0  0  0  0  0  0  0  0  0
   -2.2721   -0.7620   -2.7285 H   0  0  0  0  0  0  0  0  0  0  0  0
   -2.6182   -2.1536   -1.6633 H   0  0  0  0  0  0  0  0  0  0  0  0
   -3.8155   -1.6048   -2.8395 H   0  0  0  0  0  0  0  0  0  0  0  0
   -2.0279    1.0792    2.4825 H   0  0  0  0  0  0  0  0  0  0  0  0
   -1.6676    2.3844    1.3177 H   0  0  0  0  0  0  0  0  0  0  0  0
   -3.0405    2.5250    2.4129 H   0  0  0  0  0  0  0  0  0  0  0  0
    4.8633    2.3749    1.4768 H   0  0  0  0  0  0  0  0  0  0  0  0
    3.3213    3.1339    1.5798 H   0  0  0  0  0  0  0  0  0  0  0  0
    1.5724   -4.0189    0.5907 H   0  0  0  0  0  0  0  0  0  0  0  0
  1 17  1  0  0  0  0
  2  5  2  0  0  0  0
  2  6  2  0  0  0  0
  2  8  1  0  0  0  0
  2 13  1  0  0  0  0
  3 16  1  0  0  0  0
  3 38  1  0  0  0  0
  4 15  2  0  0  0  0
  7  9  1  0  0  0  0
  7 15  1  0  0  0  0
  7 24  1  0  0  0  0
  8 36  1  0  0  0  0
  8 37  1  0  0  0  0
  9 11  2  0  0  0  0
  9 12  1  0  0  0  0
 10 14  2  0  0  0  0
 10 15  1  0  0  0  0
 10 16  1  0  0  0  0
 11 18  1  0  0  0  0
 11 22  1  0  0  0  0
 12 19  2  0  0  0  0
 12 23  1  0  0  0  0
 13 14  1  0  0  0  0
 13 17  2  0  0  0  0
 14 25  1  0  0  0  0
 16 20  2  0  0  0  0
 17 20  1  0  0  0  0
 18 21  2  0  0  0  0
 18 26  1  0  0  0  0
 19 21  1  0  0  0  0
 19 27  1  0  0  0  0
 20 28  1  0  0  0  0
 21 29  1  0  0  0  0
 22 30  1  0  0  0  0
 22 31  1  0  0  0  0
 22 32  1  0  0  0  0
 23 33  1  0  0  0  0
 23 34  1  0  0  0  0
 23 35  1  0  0  0  0
M  END
> <PUBCHEM_COMPOUND_CID>
26618

> <PUBCHEM_CONFORMER_RMSD>
0.6

> <PUBCHEM_CONFORMER_DIVERSEORDER>
4
7
10
1
5
12
2
3
9
6
11
8

> <PUBCHEM_MMFF94_PARTIAL_CHARGES>
32
1 -0.18
10 0.09
11 -0.14
12 -0.14
13 -0.01
14 -0.15
15 0.54
16 0.08
17 0.18
18 -0.15
19 -0.15
2 1.45
20 -0.15
21 -0.15
22 0.14
23 0.14
24 0.37
25 0.15
26 0.15
27 0.15
28 0.15
29 0.15
3 -0.53
36 0.42
37 0.42
38 0.45
4 -0.57
5 -0.65
6 -0.65
7 -0.55
8 -0.98
9 0.12

> <PUBCHEM_EFFECTIVE_ROTOR_COUNT>
4

> <PUBCHEM_PHARMACOPHORE_FEATURES>
8
1 3 donor
1 4 acceptor
1 5 acceptor
1 6 acceptor
1 7 donor
1 8 donor
6 10 13 14 16 17 20 rings
6 9 11 12 18 19 21 rings

> <PUBCHEM_HEAVY_ATOM_COUNT>
23

> <PUBCHEM_ATOM_DEF_STEREO_COUNT>
0

> <PUBCHEM_ATOM_UDEF_STEREO_COUNT>
0

> <PUBCHEM_BOND_DEF_STEREO_COUNT>
0

> <PUBCHEM_BOND_UDEF_STEREO_COUNT>
0

> <PUBCHEM_ISOTOPIC_ATOM_COUNT>
0

> <PUBCHEM_COMPONENT_COUNT>
1

> <PUBCHEM_CACTVS_TAUTO_COUNT>
7

> <PUBCHEM_CONFORMER_ID>
000067FA00000004

> <PUBCHEM_MMFF94_ENERGY>
75.4947

> <PUBCHEM_FEATURE_SELFOVERLAP>
40.615

> <PUBCHEM_SHAPE_FINGERPRINT>
10411042 1 17614278871331203962
12107183 9 17407123158195204915
12236239 1 18201998785583801511
12403259 327 15502653849139176840
12403259 415 17458622289933163799
12633257 1 18040989636076164706
12730499 353 18259992565135528667
12788726 201 17489312949894819385
13009979 54 17699568035151512514
13140716 1 18333733541819758866
13583140 156 16588019134441719464
14528608 73 18411979169897154285
14848178 96 18336265747047486956
15342168 16 18187372059914747893
17349148 13 18337378379668087618
1813 80 17908707228719388318
18186145 218 18261106365955649654
18681886 176 17989197132291801738
20511986 3 18201423771268128133
20612939 158 18408324367576817388
21033648 144 18187639245450699974
21033648 29 17022893541137810117
21033650 10 17344940471492035408
21709351 56 18338793416541103860
2255824 54 18337669698483539187
23558518 356 17898012584285360698
23559900 14 18408603686675156682
335352 9 18335144177137488102
34797466 226 16271644593535013161
474 4 18335139799505107233
5104073 3 18260829323380050955
5895379 119 17273991137835352632
6034566 193 17607544710112595516
633830 44 18410572885666554775
67856867 119 18271232872447779826
9981440 41 17766544034765361968

> <PUBCHEM_SHAPE_MULTIPOLES>
445.61
11.61
2.78
1.35
3.23
0.01
0.2
4.01
2.35
-2.73
-0.45
1.02
0.1
-1.77

> <PUBCHEM_SHAPE_SELFOVERLAP>
937.221

> <PUBCHEM_SHAPE_VOLUME>
253.4

> <PUBCHEM_COORDINATE_TYPE>
2
5
10

$$$$
