123606
  -OEChem-09252021163D

 48 50  0     0  0  0  0  0  0999 V2000
    2.4729    0.1518   -0.9855 S   0  0  0  0  0  0  0  0  0  0  0  0
    2.7432   -0.9587   -1.8793 O   0  0  0  0  0  0  0  0  0  0  0  0
    1.5146    1.1823   -1.3389 O   0  0  0  0  0  0  0  0  0  0  0  0
    3.9401    0.8806   -0.5372 N   0  0  0  0  0  0  0  0  0  0  0  0
   -3.0381   -2.9373   -0.0848 N   0  0  0  0  0  0  0  0  0  0  0  0
   -4.2816    2.7863   -0.0568 N   0  0  0  0  0  0  0  0  0  0  0  0
    3.9070    1.9420    0.5114 C   0  0  0  0  0  0  0  0  0  0  0  0
    5.1041   -0.0091   -0.2724 C   0  0  0  0  0  0  0  0  0  0  0  0
    5.0185    1.5736    1.4849 C   0  0  0  0  0  0  0  0  0  0  0  0
    6.0116    0.8282    0.6150 C   0  0  0  0  0  0  0  0  0  0  0  0
    1.9849   -0.5242    0.5831 C   0  0  0  0  0  0  0  0  0  0  0  0
    0.6763   -1.2264    0.3898 C   0  0  0  0  0  0  0  0  0  0  0  0
   -1.7417   -1.1819    0.3795 C   0  0  0  0  0  0  0  0  0  0  0  0
   -0.5140   -0.5151    0.5624 C   0  0  0  0  0  0  0  0  0  0  0  0
   -3.1064   -0.7888    0.4686 C   0  0  0  0  0  0  0  0  0  0  0  0
   -1.7268   -2.5342    0.0309 C   0  0  0  0  0  0  0  0  0  0  0  0
    0.6649   -2.5734    0.0423 C   0  0  0  0  0  0  0  0  0  0  0  0
   -3.6138    0.5555    0.8106 C   0  0  0  0  0  0  0  0  0  0  0  0
   -0.5406   -3.2559   -0.1444 C   0  0  0  0  0  0  0  0  0  0  0  0
   -3.8791   -1.8895    0.1780 C   0  0  0  0  0  0  0  0  0  0  0  0
   -3.8079    1.4560   -0.4232 C   0  0  0  0  0  0  0  0  0  0  0  0
   -4.4126    3.6311   -1.2449 C   0  0  0  0  0  0  0  0  0  0  0  0
   -3.3756    3.4070    0.9107 C   0  0  0  0  0  0  0  0  0  0  0  0
    2.9456    2.0547    1.0139 H   0  0  0  0  0  0  0  0  0  0  0  0
    4.1342    2.8948    0.0190 H   0  0  0  0  0  0  0  0  0  0  0  0
    5.6012   -0.2785   -1.2083 H   0  0  0  0  0  0  0  0  0  0  0  0
    4.8035   -0.9208    0.2506 H   0  0  0  0  0  0  0  0  0  0  0  0
    4.6282    0.9070    2.2635 H   0  0  0  0  0  0  0  0  0  0  0  0
    5.4541    2.4501    1.9727 H   0  0  0  0  0  0  0  0  0  0  0  0
    6.5898    1.5366    0.0095 H   0  0  0  0  0  0  0  0  0  0  0  0
    6.7103    0.2182    1.1939 H   0  0  0  0  0  0  0  0  0  0  0  0
    2.7454   -1.2253    0.9353 H   0  0  0  0  0  0  0  0  0  0  0  0
    1.8735    0.2696    1.3239 H   0  0  0  0  0  0  0  0  0  0  0  0
   -0.4979    0.5372    0.8327 H   0  0  0  0  0  0  0  0  0  0  0  0
   -4.5675    0.4636    1.3473 H   0  0  0  0  0  0  0  0  0  0  0  0
   -2.9043    0.9923    1.5217 H   0  0  0  0  0  0  0  0  0  0  0  0
    1.5976   -3.1173   -0.0887 H   0  0  0  0  0  0  0  0  0  0  0  0
   -0.5517   -4.3063   -0.4153 H   0  0  0  0  0  0  0  0  0  0  0  0
   -4.9511   -2.0225    0.1335 H   0  0  0  0  0  0  0  0  0  0  0  0
   -3.3359   -3.8718   -0.3286 H   0  0  0  0  0  0  0  0  0  0  0  0
   -4.5371    0.9807   -1.0924 H   0  0  0  0  0  0  0  0  0  0  0  0
   -2.8628    1.5172   -0.9808 H   0  0  0  0  0  0  0  0  0  0  0  0
   -5.1075    3.1807   -1.9625 H   0  0  0  0  0  0  0  0  0  0  0  0
   -3.4518    3.7904   -1.7479 H   0  0  0  0  0  0  0  0  0  0  0  0
   -4.8295    4.6088   -0.9787 H   0  0  0  0  0  0  0  0  0  0  0  0
   -3.6355    4.4633    1.0530 H   0  0  0  0  0  0  0  0  0  0  0  0
   -2.3273    3.3652    0.5926 H   0  0  0  0  0  0  0  0  0  0  0  0
   -3.4744    2.9605    1.9048 H   0  0  0  0  0  0  0  0  0  0  0  0
  1  2  2  0  0  0  0
  1  3  2  0  0  0  0
  1  4  1  0  0  0  0
  1 11  1  0  0  0  0
  4  7  1  0  0  0  0
  4  8  1  0  0  0  0
  5 16  1  0  0  0  0
  5 20  1  0  0  0  0
  5 40  1  0  0  0  0
  6 21  1  0  0  0  0
  6 22  1  0  0  0  0
  6 23  1  0  0  0  0
  7  9  1  0  0  0  0
  7 24  1  0  0  0  0
  7 25  1  0  0  0  0
  8 10  1  0  0  0  0
  8 26  1  0  0  0  0
  8 27  1  0  0  0  0
  9 10  1  0  0  0  0
  9 28  1  0  0  0  0
  9 29  1  0  0  0  0
 10 30  1  0  0  0  0
 10 31  1  0  0  0  0
 11 12  1  0  0  0  0
 11 32  1  0  0  0  0
 11 33  1  0  0  0  0
 12 14  2  0  0  0  0
 12 17  1  0  0  0  0
 13 14  1  0  0  0  0
 13 15  1  0  0  0  0
 13 16  2  0  0  0  0
 14 34  1  0  0  0  0
 15 18  1  0  0  0  0
 15 20  2  0  0  0  0
 16 19  1  0  0  0  0
 17 19  2  0  0  0  0
 17 37  1  0  0  0  0
 18 21  1  0  0  0  0
 18 35  1  0  0  0  0
 18 36  1  0  0  0  0
 19 38  1  0  0  0  0
 20 39  1  0  0  0  0
 21 41  1  0  0  0  0
 21 42  1  0  0  0  0
 22 43  1  0  0  0  0
 22 44  1  0  0  0  0
 22 45  1  0  0  0  0
 23 46  1  0  0  0  0
 23 47  1  0  0  0  0
 23 48  1  0  0  0  0
M  END
> <PUBCHEM_COMPOUND_CID>
123606

> <PUBCHEM_CONFORMER_RMSD>
0.8

> <PUBCHEM_CONFORMER_DIVERSEORDER>
1
41
53
51
44
68
60
10
35
15
61
24
74
52
58
45
75
43
34
38
42
37
55
65
67
56
17
27
49
31
21
47
16
40
76
69
39
20
11
71
29
73
7
6
22
5
66
72
26
8
25
50
18
3
48
4
63
33
59
19
70
62
36
12
13
46
23
64
28
57
14
30
9
54
2
32

> <PUBCHEM_MMFF94_PARTIAL_CHARGES>
25
1 1.33
11 0.25
12 -0.14
14 -0.15
15 -0.18
16 -0.15
17 -0.15
18 0.18
19 -0.15
2 -0.65
20 -0.3
21 0.27
22 0.27
23 0.27
3 -0.65
34 0.15
37 0.15
38 0.15
39 0.15
4 -0.85
40 0.27
5 0.03
6 -0.81
7 0.36
8 0.36

> <PUBCHEM_EFFECTIVE_ROTOR_COUNT>
7

> <PUBCHEM_PHARMACOPHORE_FEATURES>
8
1 2 acceptor
1 3 acceptor
1 5 cation
1 5 donor
1 6 cation
5 4 7 8 9 10 rings
5 5 13 15 16 20 rings
6 12 13 14 16 17 19 rings

> <PUBCHEM_HEAVY_ATOM_COUNT>
23

> <PUBCHEM_ATOM_DEF_STEREO_COUNT>
0

> <PUBCHEM_ATOM_UDEF_STEREO_COUNT>
0

> <PUBCHEM_BOND_DEF_STEREO_COUNT>
0

> <PUBCHEM_BOND_UDEF_STEREO_COUNT>
0

> <PUBCHEM_ISOTOPIC_ATOM_COUNT>
0

> <PUBCHEM_COMPONENT_COUNT>
1

> <PUBCHEM_CACTVS_TAUTO_COUNT>
1

> <PUBCHEM_CONFORMER_ID>
0001E2D600000001

> <PUBCHEM_MMFF94_ENERGY>
38.5156

> <PUBCHEM_FEATURE_SELFOVERLAP>
40.705

> <PUBCHEM_SHAPE_FINGERPRINT>
10411042 1 17762337311889199443
10646746 165 18411705404518595516
12107183 9 18190729848599506018
12173636 292 18410578405142843207
12403259 415 18201446921478872496
12422481 6 17532366466136258244
12596602 18 17024026162747650568
12969540 114 16271927168555770258
13103583 49 15936416627983254720
13911987 19 16055206902692055080
13965767 371 17896596185163256789
14142880 1 18187078460582775831
14223995 32 18267011778975269808
14251764 38 18338799030354159372
14294032 229 18413107256670207745
14466204 15 18407757041094322192
14508225 48 17695894911033771943
14950920 106 15068922848889945469
15003188 8 18042119873800282477
15961568 22 17691120861151848824
16988056 13 16751266598394362101
17818456 19 18263084482274814484
20567600 299 17183622092560074021
20645477 56 18271257096079536675
21033648 29 18271515485902450400
21033650 10 18190766252541709694
21279426 13 18271250418059272222
21315764 268 18199183061017550064
22122407 14 15647050486505946887
23402539 116 18199747123415103550
23557571 272 18342463689702788818
23559900 14 17917161520281720670
238078 22 9871477516643486758
312425 83 17058651751133772509
3459 39 18341878680676276504
508706 21 18340197591779867193
5283173 99 18342740728147250344
5895379 119 18263379112784046812
6327066 14 18261948536571822653
6328613 192 18115034129789343756
7064713 232 18260831483812105324
7808743 9 18410290302925729529
79837 15 18115033025118059898
9849439 229 18194393391226106921
9862522 239 18040708130887120013
9981440 41 18334579023354225883

> <PUBCHEM_SHAPE_MULTIPOLES>
450.5
11.75
4.26
1.17
10.01
1.12
-0.24
9.75
1.07
-6.6
-0.22
0.62
0.52
1.34

> <PUBCHEM_SHAPE_SELFOVERLAP>
937.109

> <PUBCHEM_SHAPE_VOLUME>
260.6

> <PUBCHEM_COORDINATE_TYPE>
2
5
10

$$$$
