10224207
  -OEChem-09252021163D

 63 65  0     1  0  0  0  0  0999 V2000
   -8.1108   -0.3929    0.7524 O   0  0  0  0  0  0  0  0  0  0  0  0
    3.9528   -1.2215    1.6587 O   0  0  0  0  0  0  0  0  0  0  0  0
    5.8913   -0.4886   -1.2405 O   0  0  0  0  0  0  0  0  0  0  0  0
    7.3942   -2.1783   -1.0566 O   0  0  0  0  0  0  0  0  0  0  0  0
   -0.4503   -0.9634    0.4916 N   0  0  2  0  0  0  0  0  0  0  0  0
    3.8265   -1.9285   -0.5440 N   0  0  0  0  0  0  0  0  0  0  0  0
   -3.3262   -0.8929   -0.3494 C   0  0  2  0  0  0  0  0  0  0  0  0
   -2.8591   -1.0444    1.1459 C   0  0  1  0  0  0  0  0  0  0  0  0
   -2.1659   -0.2201   -1.1432 C   0  0  0  0  0  0  0  0  0  0  0  0
   -1.4669   -1.7116    1.2401 C   0  0  0  0  0  0  0  0  0  0  0  0
   -0.7963   -0.8779   -0.9300 C   0  0  0  0  0  0  0  0  0  0  0  0
   -4.6674   -0.1296   -0.4548 C   0  0  0  0  0  0  0  0  0  0  0  0
   -3.5854   -2.2944   -0.9711 C   0  0  0  0  0  0  0  0  0  0  0  0
   -2.8339    0.2912    1.9176 C   0  0  0  0  0  0  0  0  0  0  0  0
    0.8685   -1.5716    0.6637 C   0  0  0  0  0  0  0  0  0  0  0  0
    2.0090   -0.5727    0.3923 C   0  0  1  0  0  0  0  0  0  0  0  0
   -5.7983   -0.6118    0.2041 C   0  0  0  0  0  0  0  0  0  0  0  0
   -4.7456    1.0414   -1.2087 C   0  0  0  0  0  0  0  0  0  0  0  0
    1.8980    0.7034    1.2528 C   0  0  0  0  0  0  0  0  0  0  0  0
    3.3600   -1.2704    0.5809 C   0  0  0  0  0  0  0  0  0  0  0  0
   -7.0075    0.0770    0.1090 C   0  0  0  0  0  0  0  0  0  0  0  0
   -5.9548    1.7302   -1.3038 C   0  0  0  0  0  0  0  0  0  0  0  0
   -7.0857    1.2480   -0.6449 C   0  0  0  0  0  0  0  0  0  0  0  0
    2.6726    1.8703    0.6851 C   0  0  0  0  0  0  0  0  0  0  0  0
    4.0034    2.0689    1.0529 C   0  0  0  0  0  0  0  0  0  0  0  0
    2.0570    2.7487   -0.2064 C   0  0  0  0  0  0  0  0  0  0  0  0
    5.0844   -2.6371   -0.5578 C   0  0  0  0  0  0  0  0  0  0  0  0
    4.7184    3.1459    0.5290 C   0  0  0  0  0  0  0  0  0  0  0  0
    2.7721    3.8257   -0.7303 C   0  0  0  0  0  0  0  0  0  0  0  0
    4.1028    4.0243   -0.3626 C   0  0  0  0  0  0  0  0  0  0  0  0
    6.2433   -1.7674   -0.9721 C   0  0  0  0  0  0  0  0  0  0  0  0
   -3.5631   -1.6993    1.6770 H   0  0  0  0  0  0  0  0  0  0  0  0
   -2.3854   -0.2243   -2.2192 H   0  0  0  0  0  0  0  0  0  0  0  0
   -2.0612    0.8321   -0.8477 H   0  0  0  0  0  0  0  0  0  0  0  0
   -1.5205   -2.7510    0.8927 H   0  0  0  0  0  0  0  0  0  0  0  0
   -1.1839   -1.7589    2.3000 H   0  0  0  0  0  0  0  0  0  0  0  0
   -0.0634   -0.2627   -1.4641 H   0  0  0  0  0  0  0  0  0  0  0  0
   -0.7750   -1.8665   -1.4044 H   0  0  0  0  0  0  0  0  0  0  0  0
   -2.6827   -2.9084   -1.0272 H   0  0  0  0  0  0  0  0  0  0  0  0
   -4.3152   -2.8731   -0.3939 H   0  0  0  0  0  0  0  0  0  0  0  0
   -3.9741   -2.2038   -1.9931 H   0  0  0  0  0  0  0  0  0  0  0  0
   -2.4778    0.1333    2.9419 H   0  0  0  0  0  0  0  0  0  0  0  0
   -3.8333    0.7292    1.9959 H   0  0  0  0  0  0  0  0  0  0  0  0
   -2.1773    1.0312    1.4504 H   0  0  0  0  0  0  0  0  0  0  0  0
    0.9820   -2.4738    0.0475 H   0  0  0  0  0  0  0  0  0  0  0  0
    0.9889   -1.9097    1.7028 H   0  0  0  0  0  0  0  0  0  0  0  0
    1.9616   -0.2740   -0.6637 H   0  0  0  0  0  0  0  0  0  0  0  0
   -5.7500   -1.5191    0.7999 H   0  0  0  0  0  0  0  0  0  0  0  0
   -3.9043    1.4583   -1.7495 H   0  0  0  0  0  0  0  0  0  0  0  0
    2.2285    0.5127    2.2822 H   0  0  0  0  0  0  0  0  0  0  0  0
    0.8540    1.0256    1.3498 H   0  0  0  0  0  0  0  0  0  0  0  0
   -6.0172    2.6409   -1.8924 H   0  0  0  0  0  0  0  0  0  0  0  0
   -8.0249    1.7888   -0.7230 H   0  0  0  0  0  0  0  0  0  0  0  0
    3.2788   -1.9091   -1.3992 H   0  0  0  0  0  0  0  0  0  0  0  0
    4.4960    1.4004    1.7527 H   0  0  0  0  0  0  0  0  0  0  0  0
    1.0215    2.6026   -0.5028 H   0  0  0  0  0  0  0  0  0  0  0  0
   -7.8772   -1.2102    1.2250 H   0  0  0  0  0  0  0  0  0  0  0  0
    5.2874   -3.0373    0.4399 H   0  0  0  0  0  0  0  0  0  0  0  0
    4.9868   -3.4537   -1.2786 H   0  0  0  0  0  0  0  0  0  0  0  0
    5.7541    3.3015    0.8166 H   0  0  0  0  0  0  0  0  0  0  0  0
    2.2930    4.5092   -1.4251 H   0  0  0  0  0  0  0  0  0  0  0  0
    4.6596    4.8629   -0.7704 H   0  0  0  0  0  0  0  0  0  0  0  0
    6.6621    0.0573   -1.5052 H   0  0  0  0  0  0  0  0  0  0  0  0
  1 21  1  0  0  0  0
  1 57  1  0  0  0  0
  2 20  2  0  0  0  0
  3 31  1  0  0  0  0
  3 63  1  0  0  0  0
  4 31  2  0  0  0  0
  5 10  1  0  0  0  0
  5 11  1  0  0  0  0
  5 15  1  0  0  0  0
  6 20  1  0  0  0  0
  6 27  1  0  0  0  0
  6 54  1  0  0  0  0
  7  8  1  0  0  0  0
  7  9  1  0  0  0  0
  7 12  1  0  0  0  0
  7 13  1  0  0  0  0
  8 10  1  0  0  0  0
  8 14  1  0  0  0  0
  8 32  1  0  0  0  0
  9 11  1  0  0  0  0
  9 33  1  0  0  0  0
  9 34  1  0  0  0  0
 10 35  1  0  0  0  0
 10 36  1  0  0  0  0
 11 37  1  0  0  0  0
 11 38  1  0  0  0  0
 12 17  2  0  0  0  0
 12 18  1  0  0  0  0
 13 39  1  0  0  0  0
 13 40  1  0  0  0  0
 13 41  1  0  0  0  0
 14 42  1  0  0  0  0
 14 43  1  0  0  0  0
 14 44  1  0  0  0  0
 15 16  1  0  0  0  0
 15 45  1  0  0  0  0
 15 46  1  0  0  0  0
 16 19  1  0  0  0  0
 16 20  1  0  0  0  0
 16 47  1  0  0  0  0
 17 21  1  0  0  0  0
 17 48  1  0  0  0  0
 18 22  2  0  0  0  0
 18 49  1  0  0  0  0
 19 24  1  0  0  0  0
 19 50  1  0  0  0  0
 19 51  1  0  0  0  0
 21 23  2  0  0  0  0
 22 23  1  0  0  0  0
 22 52  1  0  0  0  0
 23 53  1  0  0  0  0
 24 25  2  0  0  0  0
 24 26  1  0  0  0  0
 25 28  1  0  0  0  0
 25 55  1  0  0  0  0
 26 29  2  0  0  0  0
 26 56  1  0  0  0  0
 27 31  1  0  0  0  0
 27 58  1  0  0  0  0
 27 59  1  0  0  0  0
 28 30  2  0  0  0  0
 28 60  1  0  0  0  0
 29 30  1  0  0  0  0
 29 61  1  0  0  0  0
 30 62  1  0  0  0  0
M  END
> <PUBCHEM_COMPOUND_CID>
10224207

> <PUBCHEM_CONFORMER_RMSD>
1.4

> <PUBCHEM_CONFORMER_DIVERSEORDER>
1
65
84
70
104
92
63
36
99
110
18
122
133
87
120
28
124
136
98
64
123
82
14
81
25
42
91
89
134
62
73
119
56
93
115
59
106
17
97
37
143
128
85
57
135
5
41
116
35
131
100
55
113
61
40
88
129
125
8
34
4
74
69
51
95
139
15
72
132
105
140
66
75
21
24
76
107
47
121
80
112
23
60
130
127
138
94
20
27
9
39
49
22
38
86
78
48
31
50
103
19
29
109
114
83
117
96
142
32
68
67
53
102
54
16
77
79
90
33
30
11
6
101
45
46
43
71
111
12
145
26
7
13
10
126
118
144
58
52
141
3
137
44
108
2

> <PUBCHEM_MMFF94_PARTIAL_CHARGES>
39
1 -0.53
10 0.27
11 0.27
12 -0.14
15 0.27
16 0.06
17 -0.15
18 -0.15
19 0.14
2 -0.57
20 0.57
21 0.08
22 -0.15
23 -0.15
24 -0.14
25 -0.15
26 -0.15
27 0.36
28 -0.15
29 -0.15
3 -0.65
30 -0.15
31 0.66
4 -0.57
48 0.15
49 0.15
5 -0.81
52 0.15
53 0.15
54 0.37
55 0.15
56 0.15
57 0.45
6 -0.73
60 0.15
61 0.15
62 0.15
63 0.5
7 0.14

> <PUBCHEM_EFFECTIVE_ROTOR_COUNT>
10.2

> <PUBCHEM_PHARMACOPHORE_FEATURES>
10
1 1 donor
1 2 acceptor
1 3 acceptor
1 4 acceptor
1 5 cation
1 6 donor
3 3 4 31 anion
6 12 17 18 21 22 23 rings
6 24 25 26 28 29 30 rings
6 5 7 8 9 10 11 rings

> <PUBCHEM_HEAVY_ATOM_COUNT>
31

> <PUBCHEM_ATOM_DEF_STEREO_COUNT>
0

> <PUBCHEM_ATOM_UDEF_STEREO_COUNT>
3

> <PUBCHEM_BOND_DEF_STEREO_COUNT>
0

> <PUBCHEM_BOND_UDEF_STEREO_COUNT>
0

> <PUBCHEM_ISOTOPIC_ATOM_COUNT>
0

> <PUBCHEM_COMPONENT_COUNT>
1

> <PUBCHEM_CACTVS_TAUTO_COUNT>
6

> <PUBCHEM_CONFORMER_ID>
009C024F00000001

> <PUBCHEM_MMFF94_ENERGY>
82.0792

> <PUBCHEM_FEATURE_SELFOVERLAP>
50.804

> <PUBCHEM_SHAPE_FINGERPRINT>
10050765 1 18265895941812674627
10763959 59 18407760335112529612
10816530 90 18334012818321924260
11093857 5 17460042987695208322
11720765 8 18343584049714548392
12107698 1 18271246027822038789
12166972 35 18131631158007944761
12403259 415 18040707057477286861
13383665 225 17606979552572104239
13540713 4 18117009977352978482
14294032 229 16270256843132113459
14556957 393 17346608452064108113
15183329 4 18059290959691590111
15198563 99 18122359991150083268
15347590 135 10665236920923859143
15439362 3 18267585887643524736
15840311 113 18407760331814685597
16994733 274 15575298587524726350
1813 80 18059590031782159750
18365409 1 17270054795856008912
21033648 29 17821731675383786650
21792961 116 18042134154999194458
23559900 14 18130781269879918771
23576562 1 18338801220866349046
249057 3 18272930514053994231
2747138 104 17603875537886012763
3004659 81 18272366464477701219
340366 18 18131063853221760750
3411729 13 18189047750174746520
397830 11 18115315604728962443
4093350 32 18131346432421407680
4098825 35 18411980303900518931
4144715 1 18261115218611110849
44317340 157 18270124628982854658
46194498 28 18412825772243823718
5081480 168 18267045936870604820
5104073 3 17895185645542902227
54076057 255 18040720238547497012
57724786 102 18409725196735383461
58902169 19 18060129929844172735
633830 44 18261939834793818955
9658208 31 17530969115490467067

> <PUBCHEM_SHAPE_MULTIPOLES>
604.53
19.39
3.87
1.43
14.19
3.51
-0.23
-0.6
4.55
-8.32
0.8
0.04
-0.16
1.99

> <PUBCHEM_SHAPE_SELFOVERLAP>
1268.433

> <PUBCHEM_SHAPE_VOLUME>
337.6

> <PUBCHEM_COORDINATE_TYPE>
2
5
10

$$$$
