135409400
  -OEChem-09252021163D

 23 25  0     0  0  0  0  0  0999 V2000
    2.5138    2.5096    0.0003 Cl  0  0  0  0  0  0  0  0  0  0  0  0
    4.8888    0.3830    0.0008 Cl  0  0  0  0  0  0  0  0  0  0  0  0
   -4.9981    0.2225    0.0018 O   0  0  0  0  0  0  0  0  0  0  0  0
   -1.5506    0.6817   -0.0005 N   0  0  0  0  0  0  0  0  0  0  0  0
   -3.0035   -0.9949    0.0000 N   0  0  0  0  0  0  0  0  0  0  0  0
   -0.7363   -1.5661   -0.0006 N   0  0  0  0  0  0  0  0  0  0  0  0
   -0.2807    1.3604   -0.0011 C   0  0  0  0  0  0  0  0  0  0  0  0
   -2.8313    1.3508   -0.0006 C   0  0  0  0  0  0  0  0  0  0  0  0
   -1.6779   -0.6801   -0.0004 C   0  0  0  0  0  0  0  0  0  0  0  0
    0.8476    0.3488   -0.0005 C   0  0  0  0  0  0  0  0  0  0  0  0
    0.5807   -1.0425   -0.0005 C   0  0  0  0  0  0  0  0  0  0  0  0
   -3.7785    0.1518    0.0005 C   0  0  0  0  0  0  0  0  0  0  0  0
    2.1736    0.8023    0.0000 C   0  0  0  0  0  0  0  0  0  0  0  0
    1.6537   -1.9416   -0.0001 C   0  0  0  0  0  0  0  0  0  0  0  0
    3.2291   -0.1085    0.0004 C   0  0  0  0  0  0  0  0  0  0  0  0
    2.9697   -1.4773    0.0005 C   0  0  0  0  0  0  0  0  0  0  0  0
   -0.2151    1.9901    0.8932 H   0  0  0  0  0  0  0  0  0  0  0  0
   -0.2151    1.9890   -0.8961 H   0  0  0  0  0  0  0  0  0  0  0  0
   -2.9805    1.9444   -0.9060 H   0  0  0  0  0  0  0  0  0  0  0  0
   -2.9799    1.9456    0.9040 H   0  0  0  0  0  0  0  0  0  0  0  0
   -3.3740   -1.9381    0.0004 H   0  0  0  0  0  0  0  0  0  0  0  0
    1.4692   -3.0133   -0.0001 H   0  0  0  0  0  0  0  0  0  0  0  0
    3.7813   -2.2009    0.0009 H   0  0  0  0  0  0  0  0  0  0  0  0
  1 13  1  0  0  0  0
  2 15  1  0  0  0  0
  3 12  2  0  0  0  0
  4  7  1  0  0  0  0
  4  8  1  0  0  0  0
  4  9  1  0  0  0  0
  5  9  1  0  0  0  0
  5 12  1  0  0  0  0
  5 21  1  0  0  0  0
  6  9  2  0  0  0  0
  6 11  1  0  0  0  0
  7 10  1  0  0  0  0
  7 17  1  0  0  0  0
  7 18  1  0  0  0  0
  8 12  1  0  0  0  0
  8 19  1  0  0  0  0
  8 20  1  0  0  0  0
 10 11  2  0  0  0  0
 10 13  1  0  0  0  0
 11 14  1  0  0  0  0
 13 15  2  0  0  0  0
 14 16  2  0  0  0  0
 14 22  1  0  0  0  0
 15 16  1  0  0  0  0
 16 23  1  0  0  0  0
M  END
> <PUBCHEM_COMPOUND_CID>
135409400

> <PUBCHEM_CONFORMER_RMSD>
0.4

> <PUBCHEM_CONFORMER_DIVERSEORDER>
1

> <PUBCHEM_MMFF94_PARTIAL_CHARGES>
19
1 -0.18
10 -0.14
11 0.18
12 0.57
13 0.18
14 -0.15
15 0.18
16 -0.15
2 -0.18
21 0.37
22 0.15
23 0.15
3 -0.57
4 -0.79
5 -0.49
6 -0.63
7 0.51
8 0.43
9 0.56

> <PUBCHEM_EFFECTIVE_ROTOR_COUNT>
0.6

> <PUBCHEM_PHARMACOPHORE_FEATURES>
5
1 3 acceptor
1 5 donor
5 4 5 8 9 12 rings
6 10 11 13 14 15 16 rings
6 4 6 7 9 10 11 rings

> <PUBCHEM_HEAVY_ATOM_COUNT>
16

> <PUBCHEM_ATOM_DEF_STEREO_COUNT>
0

> <PUBCHEM_ATOM_UDEF_STEREO_COUNT>
0

> <PUBCHEM_BOND_DEF_STEREO_COUNT>
0

> <PUBCHEM_BOND_UDEF_STEREO_COUNT>
0

> <PUBCHEM_ISOTOPIC_ATOM_COUNT>
0

> <PUBCHEM_COMPONENT_COUNT>
1

> <PUBCHEM_CACTVS_TAUTO_COUNT>
-1

> <PUBCHEM_CONFORMER_ID>
08122EF800000001

> <PUBCHEM_MMFF94_ENERGY>
42.881

> <PUBCHEM_FEATURE_SELFOVERLAP>
25.518

> <PUBCHEM_SHAPE_FINGERPRINT>
10608611 8 18408600344753042725
10967382 1 18410573985441633956
10980938 120 18410575050625321330
11132069 177 18411976974936718354
11471102 20 18410571769085600006
12251169 10 18410855464449515860
13140716 1 18265608969551410936
13221675 6 18410575076231568814
13380535 76 18409450297395833362
13897977 150 18338232768706074517
14144814 61 18411419466648825826
14251717 144 18411135827013885654
14325111 11 18410855434374227745
14911166 2 18411990161040185670
15196674 1 18338517430495608836
15442244 35 18195810656822587562
15536298 74 18343021056235836926
15775835 57 18413672417608782822
16945 1 18410575076389707398
17802600 8 18408600357495480836
18186145 218 18342742892399356141
18522853 276 18413670197063270064
200 152 18131627885691062703
20201158 50 18409731742112379786
20510252 161 18200594683444437073
20559304 39 18410573951218980736
20645477 70 18340485573837805239
21267235 1 18411428297117702839
221490 88 18336836380449325170
22854114 111 18409731772155902352
2334 1 18050568748722700928
23402539 116 18272362092211458871
23402655 69 18342170021445975717
23463225 33 18409730638273947780
23559900 14 18343302583348137090
2748010 2 18121786294444363078
335352 9 18410855455991450524
3545911 37 18411420613405100199
449060 62 18341614802080285050
474 4 17967819409069281940
4990 188 17988934344817561926
5104073 3 18337673112981916723
537710 114 18412547604249687664
53812653 166 18413666924762277800
58051976 378 18413388730650087868
69090 78 18343015601590551799
7364860 26 18413952797722351724
8809292 202 18259990408840276635
9709674 26 18411142445643501943

> <PUBCHEM_SHAPE_MULTIPOLES>
312.2
7.99
2.05
0.6
2.99
0.35
0
1.05
0
-1.21
0
-0.08
0.02
0

> <PUBCHEM_SHAPE_SELFOVERLAP>
672.311

> <PUBCHEM_SHAPE_VOLUME>
174.9

> <PUBCHEM_COORDINATE_TYPE>
2
5
10

$$$$
