54585
  -OEChem-09252021173D

 41 42  0     0  0  0  0  0  0999 V2000
   -4.4734   -1.9402   -1.3592 O   0  0  0  0  0  0  0  0  0  0  0  0
    7.2190    1.3818    0.4045 O   0  0  0  0  0  0  0  0  0  0  0  0
   -7.2489   -0.0202    2.5406 O   0  0  0  0  0  0  0  0  0  0  0  0
   -6.9466    1.8148    1.2380 O   0  0  0  0  0  0  0  0  0  0  0  0
    5.6598   -2.2973    1.2807 O   0  0  0  0  0  0  0  0  0  0  0  0
    7.5447   -1.3555    0.4285 O   0  0  0  0  0  0  0  0  0  0  0  0
   -5.0739    0.2305   -0.8040 N   0  0  0  0  0  0  0  0  0  0  0  0
    1.2170    0.3352    0.2387 N   0  0  0  0  0  0  0  0  0  0  0  0
    1.9222    0.2306   -0.7923 N   0  0  0  0  0  0  0  0  0  0  0  0
   -6.4834    0.0865   -1.0505 C   0  0  0  0  0  0  0  0  0  0  0  0
   -2.7530   -0.5089   -0.6589 C   0  0  0  0  0  0  0  0  0  0  0  0
   -7.2382   -0.3674    0.1922 C   0  0  0  0  0  0  0  0  0  0  0  0
   -4.1713   -0.8111   -0.9816 C   0  0  0  0  0  0  0  0  0  0  0  0
   -1.9252   -1.5402   -0.2664 C   0  0  0  0  0  0  0  0  0  0  0  0
   -2.3083    0.7927   -0.7642 C   0  0  0  0  0  0  0  0  0  0  0  0
   -0.1183    0.0508   -0.0640 C   0  0  0  0  0  0  0  0  0  0  0  0
   -0.5929   -1.2571    0.0345 C   0  0  0  0  0  0  0  0  0  0  0  0
   -0.9760    1.0757   -0.4633 C   0  0  0  0  0  0  0  0  0  0  0  0
    3.2640    0.5167   -0.4877 C   0  0  0  0  0  0  0  0  0  0  0  0
    5.4476   -0.2245    0.2127 C   0  0  0  0  0  0  0  0  0  0  0  0
    4.1158   -0.5088   -0.0889 C   0  0  0  0  0  0  0  0  0  0  0  0
    5.9211    1.0838    0.1140 C   0  0  0  0  0  0  0  0  0  0  0  0
    3.7308    1.8236   -0.5879 C   0  0  0  0  0  0  0  0  0  0  0  0
   -7.1232    0.6091    1.3427 C   0  0  0  0  0  0  0  0  0  0  0  0
    5.0627    2.1078   -0.2863 C   0  0  0  0  0  0  0  0  0  0  0  0
    6.3278   -1.3080    0.6280 C   0  0  0  0  0  0  0  0  0  0  0  0
   -6.8509    1.0605   -1.3910 H   0  0  0  0  0  0  0  0  0  0  0  0
   -6.6372   -0.6346   -1.8605 H   0  0  0  0  0  0  0  0  0  0  0  0
   -6.8423   -1.3362    0.5199 H   0  0  0  0  0  0  0  0  0  0  0  0
   -8.3018   -0.4902   -0.0371 H   0  0  0  0  0  0  0  0  0  0  0  0
   -4.7710    1.1184   -0.4187 H   0  0  0  0  0  0  0  0  0  0  0  0
   -2.2800   -2.5628   -0.1798 H   0  0  0  0  0  0  0  0  0  0  0  0
   -2.9328    1.6118   -1.1045 H   0  0  0  0  0  0  0  0  0  0  0  0
    0.0675   -2.0622    0.3468 H   0  0  0  0  0  0  0  0  0  0  0  0
   -0.6134    2.0968   -0.5494 H   0  0  0  0  0  0  0  0  0  0  0  0
    3.7285   -1.5235   -0.0322 H   0  0  0  0  0  0  0  0  0  0  0  0
    3.0689    2.6271   -0.8998 H   0  0  0  0  0  0  0  0  0  0  0  0
    5.4179    3.1316   -0.3677 H   0  0  0  0  0  0  0  0  0  0  0  0
    7.3616    2.3357    0.2792 H   0  0  0  0  0  0  0  0  0  0  0  0
   -7.1784    0.6067    3.2917 H   0  0  0  0  0  0  0  0  0  0  0  0
    6.2599   -3.0226    1.5568 H   0  0  0  0  0  0  0  0  0  0  0  0
  1 13  2  0  0  0  0
  2 22  1  0  0  0  0
  2 39  1  0  0  0  0
  3 24  1  0  0  0  0
  3 40  1  0  0  0  0
  4 24  2  0  0  0  0
  5 26  1  0  0  0  0
  5 41  1  0  0  0  0
  6 26  2  0  0  0  0
  7 10  1  0  0  0  0
  7 13  1  0  0  0  0
  7 31  1  0  0  0  0
  8  9  2  0  0  0  0
  8 16  1  0  0  0  0
  9 19  1  0  0  0  0
 10 12  1  0  0  0  0
 10 27  1  0  0  0  0
 10 28  1  0  0  0  0
 11 13  1  0  0  0  0
 11 14  2  0  0  0  0
 11 15  1  0  0  0  0
 12 24  1  0  0  0  0
 12 29  1  0  0  0  0
 12 30  1  0  0  0  0
 14 17  1  0  0  0  0
 14 32  1  0  0  0  0
 15 18  2  0  0  0  0
 15 33  1  0  0  0  0
 16 17  2  0  0  0  0
 16 18  1  0  0  0  0
 17 34  1  0  0  0  0
 18 35  1  0  0  0  0
 19 21  2  0  0  0  0
 19 23  1  0  0  0  0
 20 21  1  0  0  0  0
 20 22  2  0  0  0  0
 20 26  1  0  0  0  0
 21 36  1  0  0  0  0
 22 25  1  0  0  0  0
 23 25  2  0  0  0  0
 23 37  1  0  0  0  0
 25 38  1  0  0  0  0
M  END
> <PUBCHEM_COMPOUND_CID>
54585

> <PUBCHEM_CONFORMER_RMSD>
0.8

> <PUBCHEM_CONFORMER_DIVERSEORDER>
2
43
37
46
24
33
52
34
23
3
41
35
31
6
1
11
36
7
9
25
32
48
38
50
27
42
28
15
4
30
10
19
20
22
26
47
44
12
18
14
45
16
51
49
5
17
39
13
29
8
40
21

> <PUBCHEM_MMFF94_PARTIAL_CHARGES>
37
1 -0.57
10 0.3
11 0.09
12 0.06
13 0.54
14 -0.15
15 -0.15
16 0.18
17 -0.15
18 -0.15
19 0.18
2 -0.53
20 0.09
21 -0.15
22 0.08
23 -0.15
24 0.66
25 -0.15
26 0.63
3 -0.65
31 0.37
32 0.15
33 0.15
34 0.15
35 0.15
36 0.15
37 0.15
38 0.15
39 0.45
4 -0.57
40 0.5
41 0.5
5 -0.65
6 -0.57
7 -0.73
8 -0.18
9 -0.18

> <PUBCHEM_EFFECTIVE_ROTOR_COUNT>
8

> <PUBCHEM_PHARMACOPHORE_FEATURES>
11
1 1 acceptor
1 2 donor
1 3 acceptor
1 4 acceptor
1 5 acceptor
1 6 acceptor
1 7 donor
3 3 4 24 anion
3 5 6 26 anion
6 11 14 15 16 17 18 rings
6 19 20 21 22 23 25 rings

> <PUBCHEM_HEAVY_ATOM_COUNT>
26

> <PUBCHEM_ATOM_DEF_STEREO_COUNT>
0

> <PUBCHEM_ATOM_UDEF_STEREO_COUNT>
0

> <PUBCHEM_BOND_DEF_STEREO_COUNT>
0

> <PUBCHEM_BOND_UDEF_STEREO_COUNT>
0

> <PUBCHEM_ISOTOPIC_ATOM_COUNT>
0

> <PUBCHEM_COMPONENT_COUNT>
1

> <PUBCHEM_CACTVS_TAUTO_COUNT>
11

> <PUBCHEM_CONFORMER_ID>
0000D53900000002

> <PUBCHEM_MMFF94_ENERGY>
65.4646

> <PUBCHEM_FEATURE_SELFOVERLAP>
55.938

> <PUBCHEM_SHAPE_FINGERPRINT>
10299344 5 18341891904722207766
10906281 52 18200890568257614661
11456790 92 18343019982578507336
11475781 23 16415209944572384477
11524674 6 16660367000298369507
11646440 116 17385722512653650620
11719270 70 17561080311317565758
12166972 35 17967811652511651572
12236239 1 18340761624360212550
125118 31 15841549691265540738
13167372 99 18343303651967221517
13533116 47 18335975420622733434
13685833 64 17894909620731866518
13782708 43 14273454812414345921
13914758 101 16343707620927856867
14251764 18 18343864428740758341
15021287 119 18186521038495176181
15119646 104 18201999902354757886
15183329 4 18411130338172314679
15352257 5 16877665660475089115
15510794 2 17385721405258534211
1577012 14 18272651276876122316
195137 175 17989211481271168112
20554085 129 15985099700326958854
21130935 74 18271520996345763302
21150785 3 8646765590981986899
21267235 1 18187364303514755142
21315759 40 18409448124812093583
21781051 124 16733284390158296627
220451 1 18409448119905144662
23081809 10 18272364321547327543
23522609 53 18197517283906762109
23559900 14 18262508325465814812
3004659 81 18333724716141785718
3009799 131 14333130771599227195
328311 84 17675925386874338418
34797466 226 15502382231628992286
397830 11 16299240175503675909
4073 2 17895473764934363010
437795 51 17240483576439031218
44555599 121 18202006568149600897
5104073 3 18341609386205704915
563151 97 10735338497647084479
7226269 152 17560806516116659833

> <PUBCHEM_SHAPE_MULTIPOLES>
484.91
24.48
1.86
1.25
7.49
0.11
0.54
-0.81
8.71
-2.33
0.12
2.8
0.07
-2.09

> <PUBCHEM_SHAPE_SELFOVERLAP>
1038.775

> <PUBCHEM_SHAPE_VOLUME>
267.2

> <PUBCHEM_COORDINATE_TYPE>
2
5
10

$$$$
