2312
  -OEChem-09252021173D

 52 53  0     0  0  0  0  0  0999 V2000
   -0.9736   -0.3390   -0.4465 O   0  0  0  0  0  0  0  0  0  0  0  0
   -5.1229   -0.9190    0.1678 N   0  0  0  0  0  0  0  0  0  0  0  0
    0.3826    0.0374   -0.2206 C   0  0  0  0  0  0  0  0  0  0  0  0
    0.5722    0.5111    1.2332 C   0  0  0  0  0  0  0  0  0  0  0  0
    0.7975    1.1161   -1.2356 C   0  0  0  0  0  0  0  0  0  0  0  0
   -0.3562    1.6208    1.7202 C   0  0  0  0  0  0  0  0  0  0  0  0
   -0.2293    2.1988   -1.5671 C   0  0  0  0  0  0  0  0  0  0  0  0
    1.2486   -1.2138   -0.4423 C   0  0  0  0  0  0  0  0  0  0  0  0
   -0.3087    2.9113    0.9075 C   0  0  0  0  0  0  0  0  0  0  0  0
   -1.0415    2.7926   -0.4220 C   0  0  0  0  0  0  0  0  0  0  0  0
    2.7020   -0.9209   -0.2081 C   0  0  0  0  0  0  0  0  0  0  0  0
   -1.3586   -1.3934    0.4169 C   0  0  0  0  0  0  0  0  0  0  0  0
   -2.8166   -1.7415    0.1493 C   0  0  0  0  0  0  0  0  0  0  0  0
    3.4965   -0.4920   -1.2652 C   0  0  0  0  0  0  0  0  0  0  0  0
    3.2399   -1.0816    1.0636 C   0  0  0  0  0  0  0  0  0  0  0  0
   -3.7334   -0.5510    0.4115 C   0  0  0  0  0  0  0  0  0  0  0  0
    4.8473   -0.2202   -1.0477 C   0  0  0  0  0  0  0  0  0  0  0  0
    4.5907   -0.8096    1.2812 C   0  0  0  0  0  0  0  0  0  0  0  0
    5.3943   -0.3790    0.2255 C   0  0  0  0  0  0  0  0  0  0  0  0
   -5.3138   -1.3166   -1.2282 C   0  0  0  0  0  0  0  0  0  0  0  0
   -6.0171    0.1896    0.5065 C   0  0  0  0  0  0  0  0  0  0  0  0
    1.5846    0.9161    1.3563 H   0  0  0  0  0  0  0  0  0  0  0  0
    0.5056   -0.3159    1.9492 H   0  0  0  0  0  0  0  0  0  0  0  0
    1.0234    0.6428   -2.2003 H   0  0  0  0  0  0  0  0  0  0  0  0
    1.7202    1.6127   -0.9106 H   0  0  0  0  0  0  0  0  0  0  0  0
   -0.0665    1.8633    2.7511 H   0  0  0  0  0  0  0  0  0  0  0  0
   -1.3876    1.2554    1.7810 H   0  0  0  0  0  0  0  0  0  0  0  0
    0.3033    3.0133   -2.0759 H   0  0  0  0  0  0  0  0  0  0  0  0
   -0.9345    1.8068   -2.3119 H   0  0  0  0  0  0  0  0  0  0  0  0
    1.0925   -1.6236   -1.4497 H   0  0  0  0  0  0  0  0  0  0  0  0
    1.0193   -2.0429    0.2336 H   0  0  0  0  0  0  0  0  0  0  0  0
    0.7224    3.2544    0.7659 H   0  0  0  0  0  0  0  0  0  0  0  0
   -0.8145    3.6863    1.4975 H   0  0  0  0  0  0  0  0  0  0  0  0
   -1.9647    2.2173   -0.2876 H   0  0  0  0  0  0  0  0  0  0  0  0
   -1.3676    3.7935   -0.7332 H   0  0  0  0  0  0  0  0  0  0  0  0
   -0.8274   -2.3240    0.2106 H   0  0  0  0  0  0  0  0  0  0  0  0
   -1.2726   -1.1431    1.4764 H   0  0  0  0  0  0  0  0  0  0  0  0
   -3.1098   -2.5946    0.7731 H   0  0  0  0  0  0  0  0  0  0  0  0
   -2.8740   -2.0555   -0.8985 H   0  0  0  0  0  0  0  0  0  0  0  0
    3.0938   -0.3820   -2.2676 H   0  0  0  0  0  0  0  0  0  0  0  0
    2.6347   -1.4323    1.8946 H   0  0  0  0  0  0  0  0  0  0  0  0
   -3.6128   -0.2446    1.4583 H   0  0  0  0  0  0  0  0  0  0  0  0
   -3.4442    0.3046   -0.2110 H   0  0  0  0  0  0  0  0  0  0  0  0
    5.4742    0.1105   -1.8706 H   0  0  0  0  0  0  0  0  0  0  0  0
    5.0177   -0.9371    2.2717 H   0  0  0  0  0  0  0  0  0  0  0  0
    6.4464   -0.1692    0.3945 H   0  0  0  0  0  0  0  0  0  0  0  0
   -4.8695   -2.2937   -1.4403 H   0  0  0  0  0  0  0  0  0  0  0  0
   -6.3818   -1.4420   -1.4455 H   0  0  0  0  0  0  0  0  0  0  0  0
   -4.9177   -0.5769   -1.9335 H   0  0  0  0  0  0  0  0  0  0  0  0
   -5.8290    1.0757   -0.1107 H   0  0  0  0  0  0  0  0  0  0  0  0
   -5.9003    0.4710    1.5591 H   0  0  0  0  0  0  0  0  0  0  0  0
   -7.0643   -0.1060    0.3775 H   0  0  0  0  0  0  0  0  0  0  0  0
  1  3  1  0  0  0  0
  1 12  1  0  0  0  0
  2 16  1  0  0  0  0
  2 20  1  0  0  0  0
  2 21  1  0  0  0  0
  3  4  1  0  0  0  0
  3  5  1  0  0  0  0
  3  8  1  0  0  0  0
  4  6  1  0  0  0  0
  4 22  1  0  0  0  0
  4 23  1  0  0  0  0
  5  7  1  0  0  0  0
  5 24  1  0  0  0  0
  5 25  1  0  0  0  0
  6  9  1  0  0  0  0
  6 26  1  0  0  0  0
  6 27  1  0  0  0  0
  7 10  1  0  0  0  0
  7 28  1  0  0  0  0
  7 29  1  0  0  0  0
  8 11  1  0  0  0  0
  8 30  1  0  0  0  0
  8 31  1  0  0  0  0
  9 10  1  0  0  0  0
  9 32  1  0  0  0  0
  9 33  1  0  0  0  0
 10 34  1  0  0  0  0
 10 35  1  0  0  0  0
 11 14  2  0  0  0  0
 11 15  1  0  0  0  0
 12 13  1  0  0  0  0
 12 36  1  0  0  0  0
 12 37  1  0  0  0  0
 13 16  1  0  0  0  0
 13 38  1  0  0  0  0
 13 39  1  0  0  0  0
 14 17  1  0  0  0  0
 14 40  1  0  0  0  0
 15 18  2  0  0  0  0
 15 41  1  0  0  0  0
 16 42  1  0  0  0  0
 16 43  1  0  0  0  0
 17 19  2  0  0  0  0
 17 44  1  0  0  0  0
 18 19  1  0  0  0  0
 18 45  1  0  0  0  0
 19 46  1  0  0  0  0
 20 47  1  0  0  0  0
 20 48  1  0  0  0  0
 20 49  1  0  0  0  0
 21 50  1  0  0  0  0
 21 51  1  0  0  0  0
 21 52  1  0  0  0  0
M  END
> <PUBCHEM_COMPOUND_CID>
2312

> <PUBCHEM_CONFORMER_RMSD>
0.8

> <PUBCHEM_CONFORMER_DIVERSEORDER>
1
44
22
15
76
7
47
54
10
36
45
51
9
42
21
50
23
34
43
52
33
37
41
48
68
81
28
18
49
32
80
11
26
24
38
63
30
2
57
72
77
53
25
62
71
6
61
39
58
14
13
67
73
17
16
35
82
4
3
64
70
78
29
12
5
40
66
60
46
59
69
74
56
65
20
27
8
79
31
55
75
19

> <PUBCHEM_MMFF94_PARTIAL_CHARGES>
19
1 -0.56
11 -0.14
12 0.28
14 -0.15
15 -0.15
16 0.27
17 -0.15
18 -0.15
19 -0.15
2 -0.81
20 0.27
21 0.27
3 0.28
40 0.15
41 0.15
44 0.15
45 0.15
46 0.15
8 0.14

> <PUBCHEM_EFFECTIVE_ROTOR_COUNT>
8.4

> <PUBCHEM_PHARMACOPHORE_FEATURES>
4
1 1 acceptor
1 2 cation
6 11 14 15 17 18 19 rings
7 3 4 5 6 7 9 10 rings

> <PUBCHEM_HEAVY_ATOM_COUNT>
21

> <PUBCHEM_ATOM_DEF_STEREO_COUNT>
0

> <PUBCHEM_ATOM_UDEF_STEREO_COUNT>
0

> <PUBCHEM_BOND_DEF_STEREO_COUNT>
0

> <PUBCHEM_BOND_UDEF_STEREO_COUNT>
0

> <PUBCHEM_ISOTOPIC_ATOM_COUNT>
0

> <PUBCHEM_COMPONENT_COUNT>
1

> <PUBCHEM_CACTVS_TAUTO_COUNT>
1

> <PUBCHEM_CONFORMER_ID>
0000090800000001

> <PUBCHEM_MMFF94_ENERGY>
68.2394

> <PUBCHEM_FEATURE_SELFOVERLAP>
20.297

> <PUBCHEM_SHAPE_FINGERPRINT>
10906281 52 18263384566986200335
11265709 11 18334580143828785197
11578080 2 13480858686924644494
11646440 116 18271820029375250715
12166972 35 18341332314308749443
12293681 4 17822306677716982769
12516196 113 18273495693179435171
12592029 89 10953727911554431392
12788726 201 18261680285413735720
12916748 109 12685090393032677238
13004483 165 18187918465643491218
13134695 92 18270398420822430357
13533116 47 17967526845093837338
13764800 53 17987514802349849928
14170010 4 18270959171894735115
14347329 18 16589681532495122271
15342168 16 15912464953263370514
15848700 24 18272932738878201615
1601671 61 18411982451263120471
17357779 13 18270950293917882957
17980427 23 15051465928814088611
1813 80 18412826901699013564
18222031 100 18201438107536373550
18769570 83 18040718030944992341
200 152 17385443211494542818
20510252 161 18340205189930188322
20600515 1 18338530710761523759
21033648 29 16630517419630519955
21285901 2 18341057307052010359
21641784 216 18041854921251237756
22224240 67 8574711295980277711
23352939 185 18187369843548287636
23402539 116 18413386527817337031
23419403 2 18198037318082633965
23536379 177 16008745801562009271
23557571 272 18270690770476661958
314173 85 18343872116621474403
3411729 13 18054501671867107944
347723 3 16732982028850089859
465052 167 14189582948455441726
68521 5 18411140203612089881
7164475 11 18115303350622757422
7495541 125 17677344938618176835
81228 2 18193577600209369250
9999458 23 13614525164562357006

> <PUBCHEM_SHAPE_MULTIPOLES>
421.32
11.18
2.44
1.47
6.14
2.21
-0.01
-6.41
0.22
1.38
-0.01
-0.55
0.45
-0.55

> <PUBCHEM_SHAPE_SELFOVERLAP>
853.221

> <PUBCHEM_SHAPE_VOLUME>
245

> <PUBCHEM_COORDINATE_TYPE>
2
5
10

$$$$
