2431
  -OEChem-09252021173D

 30 30  0     0  0  0  0  0  0999 V2000
   -0.3938    2.6054    0.6726 Br  0  0  0  0  0  0  0  0  0  0  0  0
    1.8077   -0.4194    0.2389 N   0  3  0  0  0  0  0  0  0  0  0  0
    0.6557   -0.3614    1.2316 C   0  0  0  0  0  0  0  0  0  0  0  0
    1.8073    0.8414   -0.6134 C   0  0  0  0  0  0  0  0  0  0  0  0
    1.6436   -1.6382   -0.6579 C   0  0  0  0  0  0  0  0  0  0  0  0
    3.1246   -0.5198    0.9953 C   0  0  0  0  0  0  0  0  0  0  0  0
   -0.6867   -0.2610    0.5691 C   0  0  0  0  0  0  0  0  0  0  0  0
    2.9545    0.7777   -1.5978 C   0  0  0  0  0  0  0  0  0  0  0  0
   -1.2637    0.9694    0.2677 C   0  0  0  0  0  0  0  0  0  0  0  0
   -1.3505   -1.4451    0.2593 C   0  0  0  0  0  0  0  0  0  0  0  0
   -2.5143    1.0163   -0.3483 C   0  0  0  0  0  0  0  0  0  0  0  0
   -2.6012   -1.3980   -0.3566 C   0  0  0  0  0  0  0  0  0  0  0  0
   -3.1831   -0.1673   -0.6604 C   0  0  0  0  0  0  0  0  0  0  0  0
    0.8515    0.4595    1.9304 H   0  0  0  0  0  0  0  0  0  0  0  0
    0.7069   -1.2758    1.8389 H   0  0  0  0  0  0  0  0  0  0  0  0
    0.8836    0.9018   -1.1902 H   0  0  0  0  0  0  0  0  0  0  0  0
    1.9853    1.6923    0.0449 H   0  0  0  0  0  0  0  0  0  0  0  0
    2.5876   -1.8413   -1.1721 H   0  0  0  0  0  0  0  0  0  0  0  0
    1.4145   -2.5044   -0.0293 H   0  0  0  0  0  0  0  0  0  0  0  0
    0.8546   -1.4587   -1.3931 H   0  0  0  0  0  0  0  0  0  0  0  0
    3.0332   -1.3305    1.7256 H   0  0  0  0  0  0  0  0  0  0  0  0
    3.9393   -0.7621    0.3089 H   0  0  0  0  0  0  0  0  0  0  0  0
    3.3079    0.4268    1.5123 H   0  0  0  0  0  0  0  0  0  0  0  0
    2.9329    1.6870   -2.2115 H   0  0  0  0  0  0  0  0  0  0  0  0
    3.9394    0.7681   -1.1246 H   0  0  0  0  0  0  0  0  0  0  0  0
    2.8846   -0.0555   -2.3015 H   0  0  0  0  0  0  0  0  0  0  0  0
   -0.9231   -2.4141    0.5009 H   0  0  0  0  0  0  0  0  0  0  0  0
   -2.9837    1.9658   -0.5928 H   0  0  0  0  0  0  0  0  0  0  0  0
   -3.1236   -2.3194   -0.5966 H   0  0  0  0  0  0  0  0  0  0  0  0
   -4.1572   -0.1309   -1.1393 H   0  0  0  0  0  0  0  0  0  0  0  0
  1  9  1  0  0  0  0
  2  3  1  0  0  0  0
  2  4  1  0  0  0  0
  2  5  1  0  0  0  0
  2  6  1  0  0  0  0
  3  7  1  0  0  0  0
  3 14  1  0  0  0  0
  3 15  1  0  0  0  0
  4  8  1  0  0  0  0
  4 16  1  0  0  0  0
  4 17  1  0  0  0  0
  5 18  1  0  0  0  0
  5 19  1  0  0  0  0
  5 20  1  0  0  0  0
  6 21  1  0  0  0  0
  6 22  1  0  0  0  0
  6 23  1  0  0  0  0
  7  9  1  0  0  0  0
  7 10  2  0  0  0  0
  8 24  1  0  0  0  0
  8 25  1  0  0  0  0
  8 26  1  0  0  0  0
  9 11  2  0  0  0  0
 10 12  1  0  0  0  0
 10 27  1  0  0  0  0
 11 13  1  0  0  0  0
 11 28  1  0  0  0  0
 12 13  2  0  0  0  0
 12 29  1  0  0  0  0
 13 30  1  0  0  0  0
M  CHG  1   2   1
M  END
> <PUBCHEM_COMPOUND_CID>
2431

> <PUBCHEM_CONFORMER_RMSD>
0.6

> <PUBCHEM_CONFORMER_DIVERSEORDER>
1
5
8
3
2
7
6
4

> <PUBCHEM_MMFF94_PARTIAL_CHARGES>
16
1 -0.11
10 -0.15
11 -0.15
12 -0.15
13 -0.15
2 -1.01
27 0.15
28 0.15
29 0.15
3 0.65
30 0.15
4 0.5
5 0.5
6 0.5
7 -0.14
9 0.11

> <PUBCHEM_EFFECTIVE_ROTOR_COUNT>
3

> <PUBCHEM_PHARMACOPHORE_FEATURES>
3
1 1 hydrophobe
1 2 cation
6 7 9 10 11 12 13 rings

> <PUBCHEM_HEAVY_ATOM_COUNT>
13

> <PUBCHEM_ATOM_DEF_STEREO_COUNT>
0

> <PUBCHEM_ATOM_UDEF_STEREO_COUNT>
0

> <PUBCHEM_BOND_DEF_STEREO_COUNT>
0

> <PUBCHEM_BOND_UDEF_STEREO_COUNT>
0

> <PUBCHEM_ISOTOPIC_ATOM_COUNT>
0

> <PUBCHEM_COMPONENT_COUNT>
1

> <PUBCHEM_CACTVS_TAUTO_COUNT>
1

> <PUBCHEM_CONFORMER_ID>
0000097F00000001

> <PUBCHEM_MMFF94_ENERGY>
52.981

> <PUBCHEM_FEATURE_SELFOVERLAP>
15.223

> <PUBCHEM_SHAPE_FINGERPRINT>
10465860 71 18201446925309869741
12202030 40 16630532799591278444
12716758 59 17984419646472484825
12897270 3 18341338880496125862
13299463 15 18059308616164597790
13571099 52 12974147636483023311
15775835 57 17603309249556222036
161256 15 17905042900345360659
16945 1 18342744009143496785
17134986 127 17401490342704217309
17775402 16 18336550524537407293
18186145 218 17530682099947544607
20201158 50 18201146702732339947
20645476 183 17895462645047989523
20653085 51 17312821541915586149
20711985 344 17416706655829614881
22802520 49 17916312640647063111
228727 97 18262254307692794436
23402539 116 18198038340278828606
23419403 2 17469264484553944792
23552423 10 18263081033157853123
23557571 272 18130501959713892048
23559900 14 18200015250134287234
27216 239 14131621222350315804
2748010 2 17400640922942832763
353137 74 18334295323204419681
369184 2 16660084412392358803
5084963 1 17895184489563566200
5262128 65 17983611673225771860
63268167 104 17676210169218583644
6992083 37 17613433346735346106
7364860 26 17983845968044549873
8030462 33 18131358466281532398
81228 2 18200599085880965121
84936 31 16557338469476207696

> <PUBCHEM_SHAPE_MULTIPOLES>
268.5
4.81
2.11
1.21
0.56
1.01
-0.12
-0.8
-1.3
-0.51
0.17
0.84
0.11
-0.42

> <PUBCHEM_SHAPE_SELFOVERLAP>
526.099

> <PUBCHEM_SHAPE_VOLUME>
166.9

> <PUBCHEM_COORDINATE_TYPE>
2
5
10

$$$$
