2446
  -OEChem-09252021183D

 42 42  0     0  0  0  0  0  0999 V2000
    3.4870    3.4500    0.3086 Br  0  0  0  0  0  0  0  0  0  0  0  0
    2.3389   -2.4492   -0.3922 O   0  0  0  0  0  0  0  0  0  0  0  0
   -0.1524   -1.6518   -0.6703 O   0  0  0  0  0  0  0  0  0  0  0  0
   -4.3427    0.0979   -0.0443 N   0  0  0  0  0  0  0  0  0  0  0  0
   -0.7044    0.1037    0.7420 N   0  0  0  0  0  0  0  0  0  0  0  0
    5.5492    1.0958   -0.1134 N   0  0  0  0  0  0  0  0  0  0  0  0
   -2.9340    0.4641   -0.1879 C   0  0  0  0  0  0  0  0  0  0  0  0
   -4.8392    0.4843    1.2759 C   0  0  0  0  0  0  0  0  0  0  0  0
   -5.1433    0.7250   -1.0952 C   0  0  0  0  0  0  0  0  0  0  0  0
   -2.0976   -0.2211    0.8827 C   0  0  0  0  0  0  0  0  0  0  0  0
   -6.2820    0.0466    1.4398 C   0  0  0  0  0  0  0  0  0  0  0  0
   -4.6224    0.3197   -2.4607 C   0  0  0  0  0  0  0  0  0  0  0  0
    0.1672   -0.6503   -0.0352 C   0  0  0  0  0  0  0  0  0  0  0  0
    1.5822   -0.1983   -0.0563 C   0  0  0  0  0  0  0  0  0  0  0  0
    2.5943   -1.1198   -0.2334 C   0  0  0  0  0  0  0  0  0  0  0  0
    1.8367    1.1495    0.1042 C   0  0  0  0  0  0  0  0  0  0  0  0
    3.9164   -0.6759   -0.2508 C   0  0  0  0  0  0  0  0  0  0  0  0
    4.1987    0.6808   -0.0907 C   0  0  0  0  0  0  0  0  0  0  0  0
    3.1589    1.5934    0.0868 C   0  0  0  0  0  0  0  0  0  0  0  0
    2.2885   -3.2444    0.7903 C   0  0  0  0  0  0  0  0  0  0  0  0
   -2.7928    1.5523   -0.1372 H   0  0  0  0  0  0  0  0  0  0  0  0
   -2.5288    0.1318   -1.1494 H   0  0  0  0  0  0  0  0  0  0  0  0
   -2.3431    0.1152    1.8929 H   0  0  0  0  0  0  0  0  0  0  0  0
   -2.2191   -1.3098    0.8406 H   0  0  0  0  0  0  0  0  0  0  0  0
   -4.3039   -0.0357    2.0744 H   0  0  0  0  0  0  0  0  0  0  0  0
   -4.7485    1.5625    1.4559 H   0  0  0  0  0  0  0  0  0  0  0  0
   -6.1803    0.3766   -1.0573 H   0  0  0  0  0  0  0  0  0  0  0  0
   -5.1545    1.8188   -1.0105 H   0  0  0  0  0  0  0  0  0  0  0  0
   -0.3618    0.8840    1.2924 H   0  0  0  0  0  0  0  0  0  0  0  0
   -6.5680    0.1173    2.4957 H   0  0  0  0  0  0  0  0  0  0  0  0
   -6.4322   -0.9947    1.1340 H   0  0  0  0  0  0  0  0  0  0  0  0
   -6.9805    0.6848    0.8898 H   0  0  0  0  0  0  0  0  0  0  0  0
   -5.3678    0.5728   -3.2237 H   0  0  0  0  0  0  0  0  0  0  0  0
   -4.4451   -0.7593   -2.5309 H   0  0  0  0  0  0  0  0  0  0  0  0
   -3.7087    0.8539   -2.7395 H   0  0  0  0  0  0  0  0  0  0  0  0
    1.0403    1.8806    0.2069 H   0  0  0  0  0  0  0  0  0  0  0  0
    4.7223   -1.3929   -0.3906 H   0  0  0  0  0  0  0  0  0  0  0  0
    6.2881    0.4177   -0.2427 H   0  0  0  0  0  0  0  0  0  0  0  0
    5.7748    2.0751    0.0016 H   0  0  0  0  0  0  0  0  0  0  0  0
    3.2689   -3.2652    1.2765 H   0  0  0  0  0  0  0  0  0  0  0  0
    2.0182   -4.2648    0.5053 H   0  0  0  0  0  0  0  0  0  0  0  0
    1.5339   -2.8644    1.4862 H   0  0  0  0  0  0  0  0  0  0  0  0
  1 19  1  0  0  0  0
  2 15  1  0  0  0  0
  2 20  1  0  0  0  0
  3 13  2  0  0  0  0
  4  7  1  0  0  0  0
  4  8  1  0  0  0  0
  4  9  1  0  0  0  0
  5 10  1  0  0  0  0
  5 13  1  0  0  0  0
  5 29  1  0  0  0  0
  6 18  1  0  0  0  0
  6 38  1  0  0  0  0
  6 39  1  0  0  0  0
  7 10  1  0  0  0  0
  7 21  1  0  0  0  0
  7 22  1  0  0  0  0
  8 11  1  0  0  0  0
  8 25  1  0  0  0  0
  8 26  1  0  0  0  0
  9 12  1  0  0  0  0
  9 27  1  0  0  0  0
  9 28  1  0  0  0  0
 10 23  1  0  0  0  0
 10 24  1  0  0  0  0
 11 30  1  0  0  0  0
 11 31  1  0  0  0  0
 11 32  1  0  0  0  0
 12 33  1  0  0  0  0
 12 34  1  0  0  0  0
 12 35  1  0  0  0  0
 13 14  1  0  0  0  0
 14 15  1  0  0  0  0
 14 16  2  0  0  0  0
 15 17  2  0  0  0  0
 16 19  1  0  0  0  0
 16 36  1  0  0  0  0
 17 18  1  0  0  0  0
 17 37  1  0  0  0  0
 18 19  2  0  0  0  0
 20 40  1  0  0  0  0
 20 41  1  0  0  0  0
 20 42  1  0  0  0  0
M  END
> <PUBCHEM_COMPOUND_CID>
2446

> <PUBCHEM_CONFORMER_RMSD>
0.8

> <PUBCHEM_CONFORMER_DIVERSEORDER>
2
36
78
31
41
20
9
59
67
46
79
12
33
65
14
27
53
48
8
13
83
11
61
73
17
70
22
19
40
64
34
10
52
55
77
57
47
28
21
42
5
38
74
45
35
85
1
49
32
82
68
81
25
84
60
24
56
80
69
54
58
50
63
89
18
62
3
30
26
6
86
90
66
72
29
75
39
43
16
51
71
44
4
7
88
37
76
87
23
15

> <PUBCHEM_MMFF94_PARTIAL_CHARGES>
23
1 -0.11
10 0.3
13 0.54
14 0.09
15 0.08
16 -0.15
17 -0.15
18 0.1
19 0.11
2 -0.36
20 0.28
29 0.37
3 -0.57
36 0.15
37 0.15
38 0.4
39 0.4
4 -0.81
5 -0.73
6 -0.9
7 0.27
8 0.27
9 0.27

> <PUBCHEM_EFFECTIVE_ROTOR_COUNT>
8

> <PUBCHEM_PHARMACOPHORE_FEATURES>
8
1 1 hydrophobe
1 2 acceptor
1 3 acceptor
1 4 cation
1 5 donor
1 6 cation
1 6 donor
6 14 15 16 17 18 19 rings

> <PUBCHEM_HEAVY_ATOM_COUNT>
20

> <PUBCHEM_ATOM_DEF_STEREO_COUNT>
0

> <PUBCHEM_ATOM_UDEF_STEREO_COUNT>
0

> <PUBCHEM_BOND_DEF_STEREO_COUNT>
0

> <PUBCHEM_BOND_UDEF_STEREO_COUNT>
0

> <PUBCHEM_ISOTOPIC_ATOM_COUNT>
0

> <PUBCHEM_COMPONENT_COUNT>
1

> <PUBCHEM_CACTVS_TAUTO_COUNT>
3

> <PUBCHEM_CONFORMER_ID>
0000098E00000002

> <PUBCHEM_MMFF94_ENERGY>
64.2594

> <PUBCHEM_FEATURE_SELFOVERLAP>
40.605

> <PUBCHEM_SHAPE_FINGERPRINT>
10411042 1 17907304256694355854
10693767 8 18059859399198993574
10912923 1 17917988348514160099
11471102 20 18411700976586622468
11796584 16 14189585113003005748
12236239 1 17489592242685076385
12403259 415 17894917283074900303
12616971 3 18060420192666582135
12730499 353 18334303075530659962
12769317 202 18411129268947426096
12788726 201 17060072393413325049
13009979 54 17342948031831725610
13583140 156 18260828211410976651
13760787 5 18201999889838783055
13955234 65 18409167684358356410
17844677 252 18338807715173313569
19489759 90 15864068780756888073
20369508 70 18189052001939324594
20645477 56 18040998466634329163
20645477 70 18339648840856658922
21033648 144 18338793532684984597
21033648 29 17748818631804825229
21065201 7 16298673781044219675
21315764 119 15338298778110355869
21709351 56 18338514256820771646
22289505 5 18262510390939013068
23402539 116 16988844981719467589
23402655 69 18131633404370675310
23557571 272 17240206521700695901
23559900 14 17313669230768129586
268830 7 18340491058837726241
300161 21 17632573825788294705
3060560 45 18413954988514291254
335352 9 18341054099513111316
33824 294 18336268964062212466
341906 21 16153419528833901781
3545911 37 18334864934767914891
4072396 5 18335969905905824794
4340502 62 18113343006926068154
474 4 18339924913154440296
495365 180 18339354266693549240
5104073 3 18337670944229322890
542803 24 17561085791568714337
633830 44 18059586771442799207
8272917 22 18341621386465726754
9999458 23 18409173238104042844

> <PUBCHEM_SHAPE_MULTIPOLES>
390.85
13.36
2.73
1.31
15.72
0.25
-0.5
-5.07
0.25
-5.28
0.44
2.86
-0.1
0.42

> <PUBCHEM_SHAPE_SELFOVERLAP>
777.68

> <PUBCHEM_SHAPE_VOLUME>
237.5

> <PUBCHEM_COORDINATE_TYPE>
2
5
10

$$$$
