51045
  -OEChem-09252021183D

 52 54  0     1  0  0  0  0  0999 V2000
   -3.7542   -1.7118   -1.9911 O   0  0  0  0  0  0  0  0  0  0  0  0
   -2.5447    0.5372   -0.8910 O   0  0  0  0  0  0  0  0  0  0  0  0
   -0.3726   -2.2196   -0.5855 N   0  0  0  0  0  0  0  0  0  0  0  0
    2.8407    0.4981    1.8305 N   0  0  0  0  0  0  0  0  0  0  0  0
   -3.3824    0.5312    2.6000 N   0  0  0  0  0  0  0  0  0  0  0  0
    0.0812   -2.9332    0.6215 C   0  0  0  0  0  0  0  0  0  0  0  0
    1.6321   -2.7726    0.7464 C   0  0  0  0  0  0  0  0  0  0  0  0
    2.1509   -1.3989    0.9071 C   0  0  0  0  0  0  0  0  0  0  0  0
   -0.6574   -2.3145    1.8164 C   0  0  0  0  0  0  0  0  0  0  0  0
   -0.3318   -4.4026    0.4598 C   0  0  0  0  0  0  0  0  0  0  0  0
   -1.8142   -2.3155   -0.7150 C   0  0  0  0  0  0  0  0  0  0  0  0
    2.5289   -0.5081   -0.1362 C   0  0  0  0  0  0  0  0  0  0  0  0
   -2.3284   -1.5990   -1.9659 C   0  0  2  0  0  0  0  0  0  0  0  0
    2.3539   -0.7519    2.1043 C   0  0  0  0  0  0  0  0  0  0  0  0
    2.9579    0.6746    0.4701 C   0  0  0  0  0  0  0  0  0  0  0  0
   -1.9570   -0.1184   -2.0106 C   0  0  0  0  0  0  0  0  0  0  0  0
    2.5474   -0.5946   -1.5424 C   0  0  0  0  0  0  0  0  0  0  0  0
    3.4063    1.7794   -0.2625 C   0  0  0  0  0  0  0  0  0  0  0  0
    2.9933    0.5026   -2.2882 C   0  0  0  0  0  0  0  0  0  0  0  0
    3.4158    1.6704   -1.6559 C   0  0  0  0  0  0  0  0  0  0  0  0
   -1.8682    1.6145   -0.3842 C   0  0  0  0  0  0  0  0  0  0  0  0
   -1.9488    1.9416    0.9665 C   0  0  0  0  0  0  0  0  0  0  0  0
   -1.0935    2.3820   -1.2497 C   0  0  0  0  0  0  0  0  0  0  0  0
   -1.2491    3.0448    1.4556 C   0  0  0  0  0  0  0  0  0  0  0  0
   -0.3939    3.4851   -0.7607 C   0  0  0  0  0  0  0  0  0  0  0  0
   -0.4718    3.8165    0.5919 C   0  0  0  0  0  0  0  0  0  0  0  0
   -2.7406    1.1626    1.8687 C   0  0  0  0  0  0  0  0  0  0  0  0
    2.1093   -3.2382   -0.1276 H   0  0  0  0  0  0  0  0  0  0  0  0
    1.9699   -3.3735    1.6029 H   0  0  0  0  0  0  0  0  0  0  0  0
    0.0763   -2.6125   -1.4123 H   0  0  0  0  0  0  0  0  0  0  0  0
   -0.6443   -1.2188    1.7955 H   0  0  0  0  0  0  0  0  0  0  0  0
   -1.6964   -2.6475    1.9161 H   0  0  0  0  0  0  0  0  0  0  0  0
   -0.1683   -2.6188    2.7504 H   0  0  0  0  0  0  0  0  0  0  0  0
    0.1835   -5.0127    1.2124 H   0  0  0  0  0  0  0  0  0  0  0  0
   -1.3991   -4.5899    0.6154 H   0  0  0  0  0  0  0  0  0  0  0  0
   -0.0415   -4.8054   -0.5180 H   0  0  0  0  0  0  0  0  0  0  0  0
   -2.1692   -3.3469   -0.8080 H   0  0  0  0  0  0  0  0  0  0  0  0
   -2.3516   -1.8773    0.1315 H   0  0  0  0  0  0  0  0  0  0  0  0
   -1.9461   -2.0961   -2.8648 H   0  0  0  0  0  0  0  0  0  0  0  0
    2.1962   -1.0664    3.1266 H   0  0  0  0  0  0  0  0  0  0  0  0
    3.0791    1.1918    2.5258 H   0  0  0  0  0  0  0  0  0  0  0  0
   -0.8639   -0.0312   -2.0319 H   0  0  0  0  0  0  0  0  0  0  0  0
   -2.3745    0.3306   -2.9197 H   0  0  0  0  0  0  0  0  0  0  0  0
    2.2265   -1.4974   -2.0539 H   0  0  0  0  0  0  0  0  0  0  0  0
    3.7340    2.6893    0.2287 H   0  0  0  0  0  0  0  0  0  0  0  0
    3.0099    0.4415   -3.3732 H   0  0  0  0  0  0  0  0  0  0  0  0
   -4.1048   -1.2202   -1.2286 H   0  0  0  0  0  0  0  0  0  0  0  0
    3.7572    2.5109   -2.2547 H   0  0  0  0  0  0  0  0  0  0  0  0
   -1.0295    2.1846   -2.3154 H   0  0  0  0  0  0  0  0  0  0  0  0
   -1.2987    3.3167    2.5074 H   0  0  0  0  0  0  0  0  0  0  0  0
    0.2065    4.0901   -1.4338 H   0  0  0  0  0  0  0  0  0  0  0  0
    0.0725    4.6759    0.9722 H   0  0  0  0  0  0  0  0  0  0  0  0
  1 13  1  0  0  0  0
  1 47  1  0  0  0  0
  2 16  1  0  0  0  0
  2 21  1  0  0  0  0
  3  6  1  0  0  0  0
  3 11  1  0  0  0  0
  3 30  1  0  0  0  0
  4 14  1  0  0  0  0
  4 15  1  0  0  0  0
  4 41  1  0  0  0  0
  5 27  3  0  0  0  0
  6  7  1  0  0  0  0
  6  9  1  0  0  0  0
  6 10  1  0  0  0  0
  7  8  1  0  0  0  0
  7 28  1  0  0  0  0
  7 29  1  0  0  0  0
  8 12  1  0  0  0  0
  8 14  2  0  0  0  0
  9 31  1  0  0  0  0
  9 32  1  0  0  0  0
  9 33  1  0  0  0  0
 10 34  1  0  0  0  0
 10 35  1  0  0  0  0
 10 36  1  0  0  0  0
 11 13  1  0  0  0  0
 11 37  1  0  0  0  0
 11 38  1  0  0  0  0
 12 15  1  0  0  0  0
 12 17  2  0  0  0  0
 13 16  1  0  0  0  0
 13 39  1  0  0  0  0
 14 40  1  0  0  0  0
 15 18  2  0  0  0  0
 16 42  1  0  0  0  0
 16 43  1  0  0  0  0
 17 19  1  0  0  0  0
 17 44  1  0  0  0  0
 18 20  1  0  0  0  0
 18 45  1  0  0  0  0
 19 20  2  0  0  0  0
 19 46  1  0  0  0  0
 20 48  1  0  0  0  0
 21 22  1  0  0  0  0
 21 23  2  0  0  0  0
 22 24  2  0  0  0  0
 22 27  1  0  0  0  0
 23 25  1  0  0  0  0
 23 49  1  0  0  0  0
 24 26  1  0  0  0  0
 24 50  1  0  0  0  0
 25 26  2  0  0  0  0
 25 51  1  0  0  0  0
 26 52  1  0  0  0  0
M  END
> <PUBCHEM_COMPOUND_CID>
51045

> <PUBCHEM_CONFORMER_RMSD>
1.2

> <PUBCHEM_CONFORMER_DIVERSEORDER>
69
176
201
503
82
20
439
489
332
3
565
60
78
183
148
118
193
39
140
111
521
368
347
15
159
239
428
52
237
412
541
11
512
13
597
88
288
4
372
180
493
264
382
267
315
286
56
106
387
345
10
122
451
482
568
547
28
307
14
50
348
253
291
240
247
98
154
25
143
150
615
273
21
509
480
358
397
58
404
421
511
165
168
510
125
8
129
292
87
194
390
279
522
314
290
301
23
460
572
16
27
90
366
252
32
415
191
161
588
254
110
115
580
337
200
95
248
504
560
113
94
462
318
24
70
2
117
33
211
284
395
1
608
434
166
93
246
447
209
571
103
407
7
127
275
120
164
323
265
170
137
297
84
36
182
593
79
207
442
281
85
19
160
513
30
71
179
43
119
557
294
62
73
18
326
556
466
139
83
214
17
406
45
156
53
313
51
31
147
236
448
453
226
419
41
49
5
495
40
538
212
9
86
400

> <PUBCHEM_MMFF94_PARTIAL_CHARGES>
36
1 -0.68
11 0.27
13 0.28
14 -0.3
15 -0.15
16 0.28
17 -0.15
18 -0.15
19 -0.15
2 -0.36
20 -0.15
21 0.08
22 0.07
23 -0.15
24 -0.15
25 -0.15
26 -0.15
27 0.48
3 -0.9
30 0.36
4 0.03
40 0.15
41 0.27
44 0.15
45 0.15
46 0.15
47 0.4
48 0.15
49 0.15
5 -0.56
50 0.15
51 0.15
52 0.15
6 0.27
7 0.18
8 -0.18

> <PUBCHEM_EFFECTIVE_ROTOR_COUNT>
8

> <PUBCHEM_PHARMACOPHORE_FEATURES>
12
1 1 acceptor
1 1 donor
1 2 acceptor
1 3 cation
1 3 donor
1 4 cation
1 4 donor
1 5 acceptor
3 6 9 10 hydrophobe
5 4 8 12 14 15 rings
6 12 15 17 18 19 20 rings
6 21 22 23 24 25 26 rings

> <PUBCHEM_HEAVY_ATOM_COUNT>
27

> <PUBCHEM_ATOM_DEF_STEREO_COUNT>
0

> <PUBCHEM_ATOM_UDEF_STEREO_COUNT>
1

> <PUBCHEM_BOND_DEF_STEREO_COUNT>
0

> <PUBCHEM_BOND_UDEF_STEREO_COUNT>
0

> <PUBCHEM_ISOTOPIC_ATOM_COUNT>
0

> <PUBCHEM_COMPONENT_COUNT>
1

> <PUBCHEM_CACTVS_TAUTO_COUNT>
1

> <PUBCHEM_CONFORMER_ID>
0000C76500000045

> <PUBCHEM_MMFF94_ENERGY>
62.4268

> <PUBCHEM_FEATURE_SELFOVERLAP>
60.991

> <PUBCHEM_SHAPE_FINGERPRINT>
10708813 3 17404267747809098462
11112662 9 15873152940760382580
11578080 2 8466179916257097386
12156800 1 16100882706778772248
12788726 201 18341611576755180749
128993 33 18127422146008711008
13402501 40 16389865466912143796
13965767 371 16323967779331436283
14713325 29 18050040880558273238
17492 54 17970889279740510917
18981168 100 18040726848317873626
20600515 1 17835487759953888552
20715895 44 17465618396753543869
20775438 99 16397993027027650078
23419403 2 17328591029612292925
238 59 18044657503317607777
2818148 4 18269852933699840383
35225 105 18058188149354610817
3797600 57 17460063796863951624
469060 322 16012142377579069350
81228 2 18272650202970624895

> <PUBCHEM_SHAPE_MULTIPOLES>
528.97
5.56
5.05
2.51
1.02
1.39
0.02
-1.73
0.35
-1.23
-0.36
-0.79
0.15
-2.06

> <PUBCHEM_SHAPE_SELFOVERLAP>
1130.601

> <PUBCHEM_SHAPE_VOLUME>
292.7

> <PUBCHEM_COORDINATE_TYPE>
2
5
10

$$$$
