2487
  -OEChem-09252021183D

 53 57  0     1  0  0  0  0  0999 V2000
   -0.3176    1.1868    2.0330 O   0  0  0  0  0  0  0  0  0  0  0  0
   -5.3398   -1.3355   -0.4792 O   0  0  0  0  0  0  0  0  0  0  0  0
    1.5719   -0.2481   -0.8238 N   0  0  2  0  0  0  0  0  0  0  0  0
   -1.0042    1.0780   -0.3410 C   0  0  2  0  0  0  0  0  0  0  0  0
    0.1761    1.1457    0.6814 C   0  0  2  0  0  0  0  0  0  0  0  0
    1.0056   -0.1546    0.5365 C   0  0  1  0  0  0  0  0  0  0  0  0
   -0.4283    0.8682   -1.7759 C   0  0  0  0  0  0  0  0  0  0  0  0
   -1.8090    2.4108   -0.2987 C   0  0  0  0  0  0  0  0  0  0  0  0
    1.0437    2.4109    0.5005 C   0  0  0  0  0  0  0  0  0  0  0  0
   -1.8830   -0.1538   -0.0294 C   0  0  0  0  0  0  0  0  0  0  0  0
    0.5606   -0.3011   -1.8799 C   0  0  0  0  0  0  0  0  0  0  0  0
    0.1420   -1.3616    0.9807 C   0  0  0  0  0  0  0  0  0  0  0  0
   -0.9481    3.6728   -0.4132 C   0  0  0  0  0  0  0  0  0  0  0  0
    0.2160    3.6937    0.5671 C   0  0  0  0  0  0  0  0  0  0  0  0
   -1.3140   -1.3007    0.5719 C   0  0  0  0  0  0  0  0  0  0  0  0
    2.5548   -1.3163   -0.9733 C   0  0  0  0  0  0  0  0  0  0  0  0
    3.6086   -1.2358    0.0845 C   0  0  0  0  0  0  0  0  0  0  0  0
    4.4225    0.0748    0.0924 C   0  0  0  0  0  0  0  0  0  0  0  0
    4.9261   -1.9622   -0.2575 C   0  0  0  0  0  0  0  0  0  0  0  0
   -3.2431   -0.1974   -0.3867 C   0  0  0  0  0  0  0  0  0  0  0  0
    5.6606   -0.7859    0.4191 C   0  0  0  0  0  0  0  0  0  0  0  0
   -2.1145   -2.4263    0.8325 C   0  0  0  0  0  0  0  0  0  0  0  0
   -4.0247   -1.3250   -0.1269 C   0  0  0  0  0  0  0  0  0  0  0  0
   -3.4623   -2.4374    0.4860 C   0  0  0  0  0  0  0  0  0  0  0  0
    1.8135   -0.0646    1.2706 H   0  0  0  0  0  0  0  0  0  0  0  0
    0.0928    1.7707   -2.1150 H   0  0  0  0  0  0  0  0  0  0  0  0
   -1.2418    0.7071   -2.4957 H   0  0  0  0  0  0  0  0  0  0  0  0
   -2.3724    2.4651    0.6429 H   0  0  0  0  0  0  0  0  0  0  0  0
   -2.5499    2.4457   -1.1064 H   0  0  0  0  0  0  0  0  0  0  0  0
    1.5840    2.3928   -0.4526 H   0  0  0  0  0  0  0  0  0  0  0  0
    1.8054    2.4575    1.2893 H   0  0  0  0  0  0  0  0  0  0  0  0
    0.0230   -1.2569   -1.8727 H   0  0  0  0  0  0  0  0  0  0  0  0
    1.0488   -0.2352   -2.8607 H   0  0  0  0  0  0  0  0  0  0  0  0
    0.1645   -1.4084    2.0787 H   0  0  0  0  0  0  0  0  0  0  0  0
    0.5786   -2.3047    0.6348 H   0  0  0  0  0  0  0  0  0  0  0  0
   -1.5785    4.5541   -0.2448 H   0  0  0  0  0  0  0  0  0  0  0  0
   -0.5633    3.7682   -1.4350 H   0  0  0  0  0  0  0  0  0  0  0  0
    0.8577    4.5578    0.3607 H   0  0  0  0  0  0  0  0  0  0  0  0
   -0.1711    3.8272    1.5846 H   0  0  0  0  0  0  0  0  0  0  0  0
    2.0836   -2.3064   -0.9611 H   0  0  0  0  0  0  0  0  0  0  0  0
    3.0163   -1.2159   -1.9648 H   0  0  0  0  0  0  0  0  0  0  0  0
    3.2698   -1.5439    1.0838 H   0  0  0  0  0  0  0  0  0  0  0  0
    0.4469    1.1902    2.6340 H   0  0  0  0  0  0  0  0  0  0  0  0
    4.1480    0.8061    0.8572 H   0  0  0  0  0  0  0  0  0  0  0  0
    4.4931    0.5848   -0.8759 H   0  0  0  0  0  0  0  0  0  0  0  0
    5.1460   -2.0520   -1.3279 H   0  0  0  0  0  0  0  0  0  0  0  0
    5.0672   -2.9385    0.2139 H   0  0  0  0  0  0  0  0  0  0  0  0
   -3.7093    0.6483   -0.8840 H   0  0  0  0  0  0  0  0  0  0  0  0
    6.5959   -0.4736   -0.0519 H   0  0  0  0  0  0  0  0  0  0  0  0
    5.8289   -0.9285    1.4927 H   0  0  0  0  0  0  0  0  0  0  0  0
   -1.6835   -3.3046    1.3075 H   0  0  0  0  0  0  0  0  0  0  0  0
   -4.0649   -3.3174    0.6921 H   0  0  0  0  0  0  0  0  0  0  0  0
   -5.5641   -0.4841   -0.8923 H   0  0  0  0  0  0  0  0  0  0  0  0
  1  5  1  0  0  0  0
  1 43  1  0  0  0  0
  2 23  1  0  0  0  0
  2 53  1  0  0  0  0
  3  6  1  0  0  0  0
  3 11  1  0  0  0  0
  3 16  1  0  0  0  0
  4  5  1  0  0  0  0
  4  7  1  0  0  0  0
  4  8  1  0  0  0  0
  4 10  1  0  0  0  0
  5  6  1  0  0  0  0
  5  9  1  0  0  0  0
  6 12  1  0  0  0  0
  6 25  1  0  0  0  0
  7 11  1  0  0  0  0
  7 26  1  0  0  0  0
  7 27  1  0  0  0  0
  8 13  1  0  0  0  0
  8 28  1  0  0  0  0
  8 29  1  0  0  0  0
  9 14  1  0  0  0  0
  9 30  1  0  0  0  0
  9 31  1  0  0  0  0
 10 15  2  0  0  0  0
 10 20  1  0  0  0  0
 11 32  1  0  0  0  0
 11 33  1  0  0  0  0
 12 15  1  0  0  0  0
 12 34  1  0  0  0  0
 12 35  1  0  0  0  0
 13 14  1  0  0  0  0
 13 36  1  0  0  0  0
 13 37  1  0  0  0  0
 14 38  1  0  0  0  0
 14 39  1  0  0  0  0
 15 22  1  0  0  0  0
 16 17  1  0  0  0  0
 16 40  1  0  0  0  0
 16 41  1  0  0  0  0
 17 18  1  0  0  0  0
 17 19  1  0  0  0  0
 17 42  1  0  0  0  0
 18 21  1  0  0  0  0
 18 44  1  0  0  0  0
 18 45  1  0  0  0  0
 19 21  1  0  0  0  0
 19 46  1  0  0  0  0
 19 47  1  0  0  0  0
 20 23  2  0  0  0  0
 20 48  1  0  0  0  0
 21 49  1  0  0  0  0
 21 50  1  0  0  0  0
 22 24  2  0  0  0  0
 22 51  1  0  0  0  0
 23 24  1  0  0  0  0
 24 52  1  0  0  0  0
M  END
> <PUBCHEM_COMPOUND_CID>
2487

> <PUBCHEM_CONFORMER_RMSD>
0.8

> <PUBCHEM_CONFORMER_DIVERSEORDER>
1
6
7
3
8
2
5
4

> <PUBCHEM_MMFF94_PARTIAL_CHARGES>
20
1 -0.68
10 -0.14
11 0.27
12 0.14
15 -0.14
16 0.27
2 -0.53
20 -0.15
22 -0.15
23 0.08
24 -0.15
3 -0.81
4 0.14
43 0.4
48 0.15
5 0.28
51 0.15
52 0.15
53 0.45
6 0.27

> <PUBCHEM_EFFECTIVE_ROTOR_COUNT>
4.4

> <PUBCHEM_PHARMACOPHORE_FEATURES>
9
1 1 acceptor
1 1 donor
1 2 donor
1 3 cation
4 17 18 19 21 rings
6 10 15 20 22 23 24 rings
6 3 4 5 6 7 11 rings
6 4 5 6 10 12 15 rings
6 4 5 8 9 13 14 rings

> <PUBCHEM_HEAVY_ATOM_COUNT>
24

> <PUBCHEM_ATOM_DEF_STEREO_COUNT>
0

> <PUBCHEM_ATOM_UDEF_STEREO_COUNT>
3

> <PUBCHEM_BOND_DEF_STEREO_COUNT>
0

> <PUBCHEM_BOND_UDEF_STEREO_COUNT>
0

> <PUBCHEM_ISOTOPIC_ATOM_COUNT>
0

> <PUBCHEM_COMPONENT_COUNT>
1

> <PUBCHEM_CACTVS_TAUTO_COUNT>
3

> <PUBCHEM_CONFORMER_ID>
000009B700000001

> <PUBCHEM_MMFF94_ENERGY>
79.4185

> <PUBCHEM_FEATURE_SELFOVERLAP>
47.286

> <PUBCHEM_SHAPE_FINGERPRINT>
10319926 262 18195509413156477618
10411042 1 18410574019775226003
10863032 1 18119535581083401989
10906281 52 18200610098266795477
10948715 1 17690559684961450284
1100329 8 18338521833317973321
11315181 36 17967537831862649598
11578080 2 16880999413710682844
11833330 49 18261111854892432820
12173636 292 17975974254910577964
12293681 160 17978488863931874117
12403814 3 17703498918348846374
12516196 113 18412262873783010962
12553582 1 18194711286871138735
12788726 201 18334582308924961970
13004483 165 18410003326059346338
13027679 85 18408884040259383413
13134695 92 18267867362018602349
13140716 1 18335996353765807307
13540713 4 17753886423074381171
13544653 18 18409737287131735474
13583140 156 17916010267129993694
14142880 1 17606124974465988796
14787075 74 18261674882740503030
14790565 3 17763466114914326937
14866123 147 18267306422141602041
16945 1 18263094248692698887
17492 89 18196088851041227494
17980427 23 17417826057925556273
1813 80 18200890542208339871
200 152 18334574633892334982
20510252 161 18267022765215847274
20600515 1 18130244729833030299
21029758 11 18409165536689753635
21304303 282 17757808062283958484
21452121 71 18335712683786540452
22182313 1 18195500753326080032
23175994 123 18410294739584903823
23227448 37 18267585698306521068
23352939 185 18343024427511033584
23402539 116 18412540981621140015
23419403 2 18190440835258865068
23557571 272 18341898433636883214
23559900 14 18261673791750238156
283562 15 18335420106282725986
335352 9 18409446990930021943
347723 3 16660640756638891879
463206 1 18335421308863909218
5104073 3 18128810851471302042
5283173 99 18187636973223330108
5845 1 13938516688008244917
59755656 520 17828483570337263908
7364860 26 17978514453341008113
81228 2 17983325679636892963
9709674 26 17903352951142936611
9981440 41 17270018520914926246

> <PUBCHEM_SHAPE_MULTIPOLES>
477.19
8.11
3.6
1.28
7.03
3.42
-0.21
-7.39
-0.26
-1.88
0.61
0.02
0.13
0.59

> <PUBCHEM_SHAPE_SELFOVERLAP>
1042.388

> <PUBCHEM_SHAPE_VOLUME>
254.9

> <PUBCHEM_COORDINATE_TYPE>
2
5
10

$$$$
