2512
  -OEChem-09252021183D

 70 73  0     1  0  0  0  0  0999 V2000
   -0.9073   -0.2386    2.1695 O   0  0  0  0  0  0  0  0  0  0  0  0
   -3.8932   -1.6144   -1.1665 O   0  0  0  0  0  0  0  0  0  0  0  0
    0.8815    1.1040   -1.6831 N   0  0  1  0  0  0  0  0  0  0  0  0
    6.1057    1.2373    1.3344 N   0  0  0  0  0  0  0  0  0  0  0  0
   -2.5433   -0.8546    0.6052 N   0  0  0  0  0  0  0  0  0  0  0  0
   -1.9118   -2.6993   -0.7478 N   0  0  0  0  0  0  0  0  0  0  0  0
   -6.4405    0.8072    1.6896 N   0  0  0  0  0  0  0  0  0  0  0  0
    2.2688   -0.6359   -0.5467 C   0  0  2  0  0  0  0  0  0  0  0  0
    2.2318    0.8276   -1.1536 C   0  0  2  0  0  0  0  0  0  0  0  0
    1.1703   -0.8142    0.5100 C   0  0  0  0  0  0  0  0  0  0  0  0
   -0.1907   -0.4329   -0.0674 C   0  0  2  0  0  0  0  0  0  0  0  0
    2.8041    1.9431   -0.1929 C   0  0  0  0  0  0  0  0  0  0  0  0
   -0.1745    0.9726   -0.6747 C   0  0  0  0  0  0  0  0  0  0  0  0
    3.6270   -0.9457    0.0454 C   0  0  0  0  0  0  0  0  0  0  0  0
    4.4075    0.1320    0.4763 C   0  0  0  0  0  0  0  0  0  0  0  0
    4.1026    1.5056    0.3993 C   0  0  0  0  0  0  0  0  0  0  0  0
    0.7877    2.3840   -2.3792 C   0  0  0  0  0  0  0  0  0  0  0  0
   -1.2332   -0.4945    1.0068 C   0  0  0  0  0  0  0  0  0  0  0  0
    5.6518   -0.0332    1.0532 C   0  0  0  0  0  0  0  0  0  0  0  0
    4.1565   -2.2259    0.2356 C   0  0  0  0  0  0  0  0  0  0  0  0
    5.1728    2.1772    0.9424 C   0  0  0  0  0  0  0  0  0  0  0  0
    6.1985   -1.3028    1.2439 C   0  0  0  0  0  0  0  0  0  0  0  0
    5.4202   -2.3954    0.8218 C   0  0  0  0  0  0  0  0  0  0  0  0
   -0.5269    2.5354   -3.0808 C   0  0  0  0  0  0  0  0  0  0  0  0
   -3.6294   -0.2888    1.4134 C   0  0  0  0  0  0  0  0  0  0  0  0
   -2.8604   -1.7053   -0.4982 C   0  0  0  0  0  0  0  0  0  0  0  0
   -4.1110    1.0609    0.8846 C   0  0  0  0  0  0  0  0  0  0  0  0
   -1.4101    3.5041   -2.8136 C   0  0  0  0  0  0  0  0  0  0  0  0
   -5.2687    1.6744    1.6774 C   0  0  0  0  0  0  0  0  0  0  0  0
   -2.0797   -3.6777   -1.7981 C   0  0  0  0  0  0  0  0  0  0  0  0
   -6.9257    0.5767    0.3276 C   0  0  0  0  0  0  0  0  0  0  0  0
   -7.5020    1.3859    2.5151 C   0  0  0  0  0  0  0  0  0  0  0  0
   -3.3787   -3.4685   -2.5487 C   0  0  0  0  0  0  0  0  0  0  0  0
    2.0905   -1.3417   -1.3706 H   0  0  0  0  0  0  0  0  0  0  0  0
    2.9124    0.7977   -2.0192 H   0  0  0  0  0  0  0  0  0  0  0  0
    1.4071   -0.2034    1.3917 H   0  0  0  0  0  0  0  0  0  0  0  0
    1.1462   -1.8547    0.8603 H   0  0  0  0  0  0  0  0  0  0  0  0
   -0.3791   -1.1032   -0.9018 H   0  0  0  0  0  0  0  0  0  0  0  0
    2.1029    2.1520    0.6226 H   0  0  0  0  0  0  0  0  0  0  0  0
    2.9620    2.8748   -0.7474 H   0  0  0  0  0  0  0  0  0  0  0  0
   -0.0697    1.7310    0.1122 H   0  0  0  0  0  0  0  0  0  0  0  0
   -1.1667    1.1292   -1.1145 H   0  0  0  0  0  0  0  0  0  0  0  0
    0.9412    3.2241   -1.6907 H   0  0  0  0  0  0  0  0  0  0  0  0
    1.5725    2.4482   -3.1432 H   0  0  0  0  0  0  0  0  0  0  0  0
    3.5887   -3.1010   -0.0698 H   0  0  0  0  0  0  0  0  0  0  0  0
    5.3661    3.2305    1.0888 H   0  0  0  0  0  0  0  0  0  0  0  0
    6.9940    1.4529    1.7654 H   0  0  0  0  0  0  0  0  0  0  0  0
    7.1732   -1.4456    1.6961 H   0  0  0  0  0  0  0  0  0  0  0  0
    5.8097   -3.4023    0.9563 H   0  0  0  0  0  0  0  0  0  0  0  0
   -0.7668    1.8150   -3.8593 H   0  0  0  0  0  0  0  0  0  0  0  0
   -4.4519   -1.0130    1.4008 H   0  0  0  0  0  0  0  0  0  0  0  0
   -3.3036   -0.1823    2.4539 H   0  0  0  0  0  0  0  0  0  0  0  0
   -4.3505    0.9933   -0.1828 H   0  0  0  0  0  0  0  0  0  0  0  0
   -3.2688    1.7652    0.9317 H   0  0  0  0  0  0  0  0  0  0  0  0
   -2.3447    3.5610   -3.3607 H   0  0  0  0  0  0  0  0  0  0  0  0
   -1.2210    4.2501   -2.0497 H   0  0  0  0  0  0  0  0  0  0  0  0
   -4.9238    1.8405    2.7060 H   0  0  0  0  0  0  0  0  0  0  0  0
   -5.5070    2.6609    1.2584 H   0  0  0  0  0  0  0  0  0  0  0  0
   -1.1497   -2.8394   -0.0925 H   0  0  0  0  0  0  0  0  0  0  0  0
   -2.0545   -4.6685   -1.3339 H   0  0  0  0  0  0  0  0  0  0  0  0
   -1.2193   -3.5931   -2.4688 H   0  0  0  0  0  0  0  0  0  0  0  0
   -6.2376   -0.0436   -0.2540 H   0  0  0  0  0  0  0  0  0  0  0  0
   -7.1084    1.5120   -0.2141 H   0  0  0  0  0  0  0  0  0  0  0  0
   -7.8673    0.0148    0.3498 H   0  0  0  0  0  0  0  0  0  0  0  0
   -7.8457    2.3525    2.1292 H   0  0  0  0  0  0  0  0  0  0  0  0
   -7.1545    1.5288    3.5445 H   0  0  0  0  0  0  0  0  0  0  0  0
   -8.3621    0.7090    2.5674 H   0  0  0  0  0  0  0  0  0  0  0  0
   -3.4341   -4.2443   -3.3247 H   0  0  0  0  0  0  0  0  0  0  0  0
   -3.4135   -2.5272   -3.1077 H   0  0  0  0  0  0  0  0  0  0  0  0
   -4.2703   -3.6383   -1.9356 H   0  0  0  0  0  0  0  0  0  0  0  0
  1 18  2  0  0  0  0
  2 26  2  0  0  0  0
  3  9  1  0  0  0  0
  3 13  1  0  0  0  0
  3 17  1  0  0  0  0
  4 19  1  0  0  0  0
  4 21  1  0  0  0  0
  4 47  1  0  0  0  0
  5 18  1  0  0  0  0
  5 25  1  0  0  0  0
  5 26  1  0  0  0  0
  6 26  1  0  0  0  0
  6 30  1  0  0  0  0
  6 59  1  0  0  0  0
  7 29  1  0  0  0  0
  7 31  1  0  0  0  0
  7 32  1  0  0  0  0
  8  9  1  0  0  0  0
  8 10  1  0  0  0  0
  8 14  1  0  0  0  0
  8 34  1  0  0  0  0
  9 12  1  0  0  0  0
  9 35  1  0  0  0  0
 10 11  1  0  0  0  0
 10 36  1  0  0  0  0
 10 37  1  0  0  0  0
 11 13  1  0  0  0  0
 11 18  1  0  0  0  0
 11 38  1  0  0  0  0
 12 16  1  0  0  0  0
 12 39  1  0  0  0  0
 12 40  1  0  0  0  0
 13 41  1  0  0  0  0
 13 42  1  0  0  0  0
 14 15  2  0  0  0  0
 14 20  1  0  0  0  0
 15 16  1  0  0  0  0
 15 19  1  0  0  0  0
 16 21  2  0  0  0  0
 17 24  1  0  0  0  0
 17 43  1  0  0  0  0
 17 44  1  0  0  0  0
 19 22  2  0  0  0  0
 20 23  2  0  0  0  0
 20 45  1  0  0  0  0
 21 46  1  0  0  0  0
 22 23  1  0  0  0  0
 22 48  1  0  0  0  0
 23 49  1  0  0  0  0
 24 28  2  0  0  0  0
 24 50  1  0  0  0  0
 25 27  1  0  0  0  0
 25 51  1  0  0  0  0
 25 52  1  0  0  0  0
 27 29  1  0  0  0  0
 27 53  1  0  0  0  0
 27 54  1  0  0  0  0
 28 55  1  0  0  0  0
 28 56  1  0  0  0  0
 29 57  1  0  0  0  0
 29 58  1  0  0  0  0
 30 33  1  0  0  0  0
 30 60  1  0  0  0  0
 30 61  1  0  0  0  0
 31 62  1  0  0  0  0
 31 63  1  0  0  0  0
 31 64  1  0  0  0  0
 32 65  1  0  0  0  0
 32 66  1  0  0  0  0
 32 67  1  0  0  0  0
 33 68  1  0  0  0  0
 33 69  1  0  0  0  0
 33 70  1  0  0  0  0
M  END
> <PUBCHEM_COMPOUND_CID>
2512

> <PUBCHEM_CONFORMER_RMSD>
1.2

> <PUBCHEM_CONFORMER_DIVERSEORDER>
1
78
144
125
207
242
90
279
49
213
357
386
104
191
290
363
128
16
230
54
152
390
192
364
264
244
142
318
267
319
106
143
70
188
330
272
103
265
71
28
256
315
77
114
352
346
32
92
107
124
385
317
138
133
181
293
329
160
82
380
245
132
321
108
109
4
254
75
140
361
210
324
88
153
185
261
186
58
278
275
81
139
308
203
84
281
35
201
105
229
250
274
273
57
312
383
118
79
110
360
193
335
156
283
146
59
249
226
141
126
372
285
69
257
216
174
248
289
302
313
53
94
246
171
176
25
65
202
220
236
219
284
373
305
55
145
238
12
33
263
67
51
61
333
130
353
62
233
89
208
214
36
368
162
218
196
350
111
222
17
378
187
47
270
343
217
328
163
194
135
300
259
339
3
355
9
311
303
116
38
301
149
22
46
172
50
338
334
27
123
159
100
148
91
120
13
297
225
271
40
375
198
189
6
173
206
97
85
66
276
310
227
18
262
131
165
129
157
309
287
48
316
369
197
190
387
344
113
134
228
34
351
280
73
204
340
5
282
158
382
21
168
341
23
29
45
30
255
136
151
127
95
39
180
175
235
147
96
7
258
183
101
60
199
277
86
167
150
115
223
266
102
76
72
56
15
347
121
247
237
42
388
117
63
224
379
43
31
240
19
314
370
209
37
366
170
178
154
349
166
326
137
74
381
345
205
64
239
323
184
182
10
325
169
354
291
52
231
299
384
98
241
359
298
336
215
251
179
306
99
68
367
221
212
260
327
11
80
211
155
358
87
195
252
232
83
294
322
177
112
348
14
20
295
332
337
389
356
243
119
234
304
307
342
200
391
2
8
377
286
331
93
26
161
292
164
44
320
362
268
24
371
365
296
41
374
376
253
288
122
269

> <PUBCHEM_MMFF94_PARTIAL_CHARGES>
38
1 -0.57
11 0.06
12 0.18
13 0.27
14 -0.14
16 -0.18
17 0.41
18 0.57
19 -0.15
2 -0.57
20 -0.15
21 -0.3
22 -0.15
23 -0.15
24 -0.29
25 0.3
26 0.69
28 -0.3
29 0.27
3 -0.81
30 0.3
31 0.27
32 0.27
4 0.03
45 0.15
46 0.15
47 0.27
48 0.15
49 0.15
5 -0.42
50 0.15
55 0.15
56 0.15
59 0.37
6 -0.73
7 -0.81
8 0.14
9 0.27

> <PUBCHEM_EFFECTIVE_ROTOR_COUNT>
12

> <PUBCHEM_PHARMACOPHORE_FEATURES>
12
1 1 acceptor
1 2 acceptor
1 28 hydrophobe
1 3 cation
1 4 cation
1 4 donor
1 6 donor
1 7 cation
5 4 15 16 19 21 rings
6 14 15 19 20 22 23 rings
6 3 8 9 10 11 13 rings
6 8 9 12 14 15 16 rings

> <PUBCHEM_HEAVY_ATOM_COUNT>
33

> <PUBCHEM_ATOM_DEF_STEREO_COUNT>
0

> <PUBCHEM_ATOM_UDEF_STEREO_COUNT>
3

> <PUBCHEM_BOND_DEF_STEREO_COUNT>
0

> <PUBCHEM_BOND_UDEF_STEREO_COUNT>
0

> <PUBCHEM_ISOTOPIC_ATOM_COUNT>
0

> <PUBCHEM_COMPONENT_COUNT>
1

> <PUBCHEM_CACTVS_TAUTO_COUNT>
2

> <PUBCHEM_CONFORMER_ID>
000009D000000001

> <PUBCHEM_MMFF94_ENERGY>
93.7913

> <PUBCHEM_FEATURE_SELFOVERLAP>
61.17

> <PUBCHEM_SHAPE_FINGERPRINT>
10006869 2 17317022673046204213
11578080 2 17983826086382584136
11646440 116 17385444319142567713
12107183 9 18200875055031641322
12422481 6 18261681372088206933
12539765 74 16773247184748396053
13583140 156 16773787126235075690
13673619 4 14923951167246758617
13911987 19 13830136117271548776
15021287 119 18186803608704293103
15361156 5 17967810536178324380
15840311 113 18340778052858098241
15849732 13 18408042892948331179
16994733 274 15266794196299416499
17980427 23 18272369814868904677
20511986 3 18271792558115701922
20642791 268 18266177417242975372
21360443 126 13685999995810408977
21424621 283 17131286649453782435
21859007 373 18116148857879730765
23559900 14 16987742146288106654
25019877 29 17988928838964894447
3380486 145 18334848441999033804
4340502 62 17774445975446418207
5028188 123 18129668625539299052
508180 173 17316161949057537271
5104073 3 18411132576188289234
513202 73 17823129034477523382
57527293 21 18411412926289535526

> <PUBCHEM_SHAPE_MULTIPOLES>
642.48
16.05
3.7
2.64
8.07
1.06
-1.43
-1.33
13.57
0.98
-3.56
3.48
-1.22
-2.82

> <PUBCHEM_SHAPE_SELFOVERLAP>
1358.404

> <PUBCHEM_SHAPE_VOLUME>
359.2

> <PUBCHEM_COORDINATE_TYPE>
2
5
10

$$$$
