400633
  -OEChem-09252021183D

 47 48  0     1  0  0  0  0  0999 V2000
    0.1365    2.6328   -0.3750 F   0  0  0  0  0  0  0  0  0  0  0  0
    4.3777    0.6975    1.0380 O   0  0  0  0  0  0  0  0  0  0  0  0
    4.4064   -2.1990   -1.0314 O   0  0  0  0  0  0  0  0  0  0  0  0
    6.3742    0.0556   -1.8640 O   0  0  0  0  0  0  0  0  0  0  0  0
    1.6894   -2.3529    0.8608 O   0  0  0  0  0  0  0  0  0  0  0  0
   -3.8900    0.4150   -0.0558 O   0  0  0  0  0  0  0  0  0  0  0  0
   -2.6042   -1.4252    0.4335 O   0  0  0  0  0  0  0  0  0  0  0  0
    2.3095   -0.1752    0.3849 N   0  0  0  0  0  0  0  0  0  0  0  0
   -0.0062   -0.8974    0.4387 N   0  0  0  0  0  0  0  0  0  0  0  0
   -1.6626    0.6545   -0.0035 N   0  0  0  0  0  0  0  0  0  0  0  0
    4.3620   -0.8011   -0.8105 C   0  0  2  0  0  0  0  0  0  0  0  0
    5.7543   -0.2401   -0.6276 C   0  0  2  0  0  0  0  0  0  0  0  0
    3.7090   -0.4644    0.5209 C   0  0  1  0  0  0  0  0  0  0  0  0
    5.4637    1.0266    0.1572 C   0  0  2  0  0  0  0  0  0  0  0  0
    6.6497    1.5184    0.9668 C   0  0  0  0  0  0  0  0  0  0  0  0
    1.8883    1.1112    0.0653 C   0  0  0  0  0  0  0  0  0  0  0  0
    1.3419   -1.2050    0.5767 C   0  0  0  0  0  0  0  0  0  0  0  0
    0.6006    1.4111   -0.0679 C   0  0  0  0  0  0  0  0  0  0  0  0
   -0.3461    0.3138    0.1405 C   0  0  0  0  0  0  0  0  0  0  0  0
   -7.5885   -0.3024   -0.0818 C   0  0  0  0  0  0  0  0  0  0  0  0
   -6.2886    0.4920   -0.1883 C   0  0  0  0  0  0  0  0  0  0  0  0
   -8.8026    0.5743   -0.3875 C   0  0  0  0  0  0  0  0  0  0  0  0
   -5.0716   -0.3838    0.0735 C   0  0  0  0  0  0  0  0  0  0  0  0
   -2.7064   -0.2353    0.1519 C   0  0  0  0  0  0  0  0  0  0  0  0
  -10.0963   -0.2210   -0.3155 C   0  0  0  0  0  0  0  0  0  0  0  0
    3.8573   -0.3400   -1.6673 H   0  0  0  0  0  0  0  0  0  0  0  0
    6.3919   -0.9401   -0.0741 H   0  0  0  0  0  0  0  0  0  0  0  0
    3.8455   -1.2718    1.2499 H   0  0  0  0  0  0  0  0  0  0  0  0
    5.1313    1.8333   -0.5082 H   0  0  0  0  0  0  0  0  0  0  0  0
    7.4960    1.7744    0.3230 H   0  0  0  0  0  0  0  0  0  0  0  0
    6.9727    0.7611    1.6894 H   0  0  0  0  0  0  0  0  0  0  0  0
    6.3713    2.4044    1.5475 H   0  0  0  0  0  0  0  0  0  0  0  0
    4.8588   -2.6156   -0.2784 H   0  0  0  0  0  0  0  0  0  0  0  0
    7.2317    0.4713   -1.6716 H   0  0  0  0  0  0  0  0  0  0  0  0
    2.6418    1.8730   -0.0907 H   0  0  0  0  0  0  0  0  0  0  0  0
   -7.6818   -0.7233    0.9266 H   0  0  0  0  0  0  0  0  0  0  0  0
   -7.5608   -1.1459   -0.7825 H   0  0  0  0  0  0  0  0  0  0  0  0
   -6.2002    0.9443   -1.1841 H   0  0  0  0  0  0  0  0  0  0  0  0
   -6.2950    1.3288    0.5212 H   0  0  0  0  0  0  0  0  0  0  0  0
   -1.9025    1.6143   -0.2380 H   0  0  0  0  0  0  0  0  0  0  0  0
   -8.7053    1.0099   -1.3888 H   0  0  0  0  0  0  0  0  0  0  0  0
   -8.8499    1.4059    0.3251 H   0  0  0  0  0  0  0  0  0  0  0  0
   -5.1177   -0.7999    1.0866 H   0  0  0  0  0  0  0  0  0  0  0  0
   -5.0334   -1.2036   -0.6534 H   0  0  0  0  0  0  0  0  0  0  0  0
  -10.0941   -1.0406   -1.0412 H   0  0  0  0  0  0  0  0  0  0  0  0
  -10.2404   -0.6460    0.6829 H   0  0  0  0  0  0  0  0  0  0  0  0
  -10.9514    0.4255   -0.5361 H   0  0  0  0  0  0  0  0  0  0  0  0
  1 18  1  0  0  0  0
  2 13  1  0  0  0  0
  2 14  1  0  0  0  0
  3 11  1  0  0  0  0
  3 33  1  0  0  0  0
  4 12  1  0  0  0  0
  4 34  1  0  0  0  0
  5 17  2  0  0  0  0
  6 23  1  0  0  0  0
  6 24  1  0  0  0  0
  7 24  2  0  0  0  0
  8 13  1  0  0  0  0
  8 16  1  0  0  0  0
  8 17  1  0  0  0  0
  9 17  1  0  0  0  0
  9 19  2  0  0  0  0
 10 19  1  0  0  0  0
 10 24  1  0  0  0  0
 10 40  1  0  0  0  0
 11 12  1  0  0  0  0
 11 13  1  0  0  0  0
 11 26  1  0  0  0  0
 12 14  1  0  0  0  0
 12 27  1  0  0  0  0
 13 28  1  0  0  0  0
 14 15  1  0  0  0  0
 14 29  1  0  0  0  0
 15 30  1  0  0  0  0
 15 31  1  0  0  0  0
 15 32  1  0  0  0  0
 16 18  2  0  0  0  0
 16 35  1  0  0  0  0
 18 19  1  0  0  0  0
 20 21  1  0  0  0  0
 20 22  1  0  0  0  0
 20 36  1  0  0  0  0
 20 37  1  0  0  0  0
 21 23  1  0  0  0  0
 21 38  1  0  0  0  0
 21 39  1  0  0  0  0
 22 25  1  0  0  0  0
 22 41  1  0  0  0  0
 22 42  1  0  0  0  0
 23 43  1  0  0  0  0
 23 44  1  0  0  0  0
 25 45  1  0  0  0  0
 25 46  1  0  0  0  0
 25 47  1  0  0  0  0
M  END
> <PUBCHEM_COMPOUND_CID>
400633

> <PUBCHEM_CONFORMER_RMSD>
1

> <PUBCHEM_CONFORMER_DIVERSEORDER>
1
116
309
213
320
232
250
303
266
189
66
234
326
201
187
241
260
311
292
102
117
218
235
322
125
211
119
147
3
191
29
233
85
275
132
108
120
324
145
186
214
302
157
319
204
178
206
308
293
163
136
99
45
110
268
276
77
265
135
273
179
172
312
314
156
162
182
269
124
297
173
323
224
289
174
209
56
65
277
248
123
216
255
271
72
203
240
245
221
165
25
175
142
272
282
95
243
205
220
249
126
281
74
153
63
315
313
122
133
256
295
88
279
228
79
91
310
194
80
305
94
306
238
83
148
286
244
287
155
150
89
141
50
280
188
139
160
164
20
84
262
318
100
198
237
115
60
325
57
177
171
37
121
246
217
107
210
92
192
219
51
258
226
225
129
180
23
151
169
98
68
196
294
291
159
316
105
30
140
199
73
22
86
264
61
300
183
97
207
270
285
12
55
59
261
184
146
44
40
167
118
181
138
127
112
197
215
39
149
231
114
24
9
317
242
106
38
33
54
301
21
274
230
298
185
137
93
307
78
104
304
168
87
134
263
321
283
18
166
130
64
41
96
76
19
227
109
75
48
53
27
71
239
290
34
212
69
176
13
49
42
251
193
200
195
90
67
111
7
36
82
143
2
154
158
15
131
170
103
267
223
17
252
46
62
16
43
52
254
253
10
31
284
58
101
288
11
47
296
222
278
26
81
5
113
161
257
259
229
299
208
247
152
202
144
28
236
70
128
6
32
14
190
8
4
35

> <PUBCHEM_MMFF94_PARTIAL_CHARGES>
24
1 -0.15
10 -0.49
11 0.28
12 0.28
13 0.58
14 0.28
16 -0.04
17 0.84
18 0.16
19 0.5
2 -0.56
23 0.28
24 0.78
3 -0.68
33 0.4
34 0.4
35 0.15
4 -0.68
40 0.37
5 -0.57
6 -0.43
7 -0.57
8 -0.47
9 -0.66

> <PUBCHEM_EFFECTIVE_ROTOR_COUNT>
9

> <PUBCHEM_PHARMACOPHORE_FEATURES>
12
1 10 donor
1 2 acceptor
1 25 hydrophobe
1 3 acceptor
1 3 donor
1 4 acceptor
1 4 donor
1 5 acceptor
1 7 acceptor
1 9 donor
5 2 11 12 13 14 rings
6 8 9 16 17 18 19 rings

> <PUBCHEM_HEAVY_ATOM_COUNT>
25

> <PUBCHEM_ATOM_DEF_STEREO_COUNT>
0

> <PUBCHEM_ATOM_UDEF_STEREO_COUNT>
4

> <PUBCHEM_BOND_DEF_STEREO_COUNT>
0

> <PUBCHEM_BOND_UDEF_STEREO_COUNT>
0

> <PUBCHEM_ISOTOPIC_ATOM_COUNT>
0

> <PUBCHEM_COMPONENT_COUNT>
1

> <PUBCHEM_CACTVS_TAUTO_COUNT>
4

> <PUBCHEM_CONFORMER_ID>
00061CF900000001

> <PUBCHEM_MMFF94_ENERGY>
49.9541

> <PUBCHEM_FEATURE_SELFOVERLAP>
60.947

> <PUBCHEM_SHAPE_FINGERPRINT>
10299344 5 16702302352269959655
10319688 140 18128540357977712351
11315181 36 17989208162621892771
12236239 1 17989489598194863385
12516196 113 18413106164984091209
12838862 33 18263345002116578857
13533116 47 17561082475474588874
13617811 41 18186525397043164180
14170010 4 18409729573496910017
14251764 18 18113335298356251769
14251764 46 17989486324812637585
15183329 4 18187367615019221977
15849732 13 18202844366440378829
16120349 18 18271801376037313337
20771845 171 17168150005663129682
21150785 3 17561081419302582345
21267235 1 18411986854073811433
21360443 126 17822015337011171035
21792934 111 18335127675334865464
221357 26 18131634465481104024
22224240 67 18113613508530011915
23559900 14 18338229479457516865
249057 3 18336263531566542143
335352 9 18335702767387438781
34797466 226 17131836482208166448
3545911 37 18335417976827824779
4073 2 17677053559784329795
4340502 62 15574710301100296480
465052 167 13830130607213382492
5283156 175 14056713539765423953
5486654 2 18260271858500617010
59755656 215 18261110755971349859
67123 10 18201717376007254063
8209 1 18341893000904134729

> <PUBCHEM_SHAPE_MULTIPOLES>
457.06
24.69
1.69
0.94
57.24
0.11
-0.18
-2.26
-4.32
-2.07
0.06
-1.52
0.11
0.99

> <PUBCHEM_SHAPE_SELFOVERLAP>
940.96

> <PUBCHEM_SHAPE_VOLUME>
263.4

> <PUBCHEM_COORDINATE_TYPE>
2
5
10

$$$$
