53432469
  -OEChem-09252021183D

 51 54  0     1  0  0  0  0  0999 V2000
    0.7125    1.2428    2.4740 S   0  0  0  0  0  0  0  0  0  0  0  0
    6.8499   -2.3592   -0.8770 S   0  0  0  0  0  0  0  0  0  0  0  0
   -7.5344    1.6448   -0.0276 S   0  0  0  0  0  0  0  0  0  0  0  0
   -0.3149    1.8226   -2.0262 O   0  0  0  0  0  0  0  0  0  0  0  0
    2.2192   -0.0114   -2.4251 O   0  0  0  0  0  0  0  0  0  0  0  0
    3.5672    1.7414   -1.8409 O   0  0  0  0  0  0  0  0  0  0  0  0
   -3.1624    0.3512    2.2925 O   0  0  0  0  0  0  0  0  0  0  0  0
   -5.4807   -2.5980    0.0579 O   0  0  0  0  0  0  0  0  0  0  0  0
    0.7901    0.8998   -0.1572 N   0  0  0  0  0  0  0  0  0  0  0  0
   -2.3631    0.4744    0.0888 N   0  0  0  0  0  0  0  0  0  0  0  0
   -4.3029   -2.0167    0.5477 N   0  0  0  0  0  0  0  0  0  0  0  0
   -6.4456   -0.5709   -0.7940 N   0  0  0  0  0  0  0  0  0  0  0  0
    8.6408   -0.7408    0.0481 N   0  0  0  0  0  0  0  0  0  0  0  0
   -8.4687   -0.0156   -1.8837 N   0  0  0  0  0  0  0  0  0  0  0  0
   -0.0060    0.5038    0.9907 C   0  0  2  0  0  0  0  0  0  0  0  0
   -1.1677    1.2785    0.3319 C   0  0  1  0  0  0  0  0  0  0  0  0
   -0.2239    1.3982   -0.8981 C   0  0  0  0  0  0  0  0  0  0  0  0
    2.1345    0.7173   -0.2444 C   0  0  0  0  0  0  0  0  0  0  0  0
    2.3042    0.3703    2.2687 C   0  0  0  0  0  0  0  0  0  0  0  0
    2.8752    0.4270    0.8529 C   0  0  0  0  0  0  0  0  0  0  0  0
    2.7368    0.8975   -1.5768 C   0  0  0  0  0  0  0  0  0  0  0  0
   -3.2313    0.0985    1.1004 C   0  0  0  0  0  0  0  0  0  0  0  0
    4.3004    0.1535    0.8332 C   0  0  0  0  0  0  0  0  0  0  0  0
   -4.3935   -0.7221    0.6066 C   0  0  0  0  0  0  0  0  0  0  0  0
    4.8780   -0.5727   -0.1243 C   0  0  0  0  0  0  0  0  0  0  0  0
    6.3167   -0.8850   -0.1816 C   0  0  0  0  0  0  0  0  0  0  0  0
   -5.6374   -0.0245    0.1838 C   0  0  0  0  0  0  0  0  0  0  0  0
    7.4053   -0.1584    0.2532 C   0  0  0  0  0  0  0  0  0  0  0  0
   -6.0633    1.1737    0.7176 C   0  0  0  0  0  0  0  0  0  0  0  0
    7.3678    1.1652    0.9109 C   0  0  0  0  0  0  0  0  0  0  0  0
   -7.4749    0.2234   -0.9873 C   0  0  0  0  0  0  0  0  0  0  0  0
    8.4698   -1.9036   -0.5407 C   0  0  0  0  0  0  0  0  0  0  0  0
   -5.2977   -4.0050    0.0260 C   0  0  0  0  0  0  0  0  0  0  0  0
   -0.1477   -0.5830    1.0446 H   0  0  0  0  0  0  0  0  0  0  0  0
   -1.4139    2.2570    0.7613 H   0  0  0  0  0  0  0  0  0  0  0  0
    2.9931    0.8359    2.9823 H   0  0  0  0  0  0  0  0  0  0  0  0
    2.1720   -0.6759    2.5677 H   0  0  0  0  0  0  0  0  0  0  0  0
   -2.5840    0.1722   -0.8574 H   0  0  0  0  0  0  0  0  0  0  0  0
    4.8736    0.5683    1.6548 H   0  0  0  0  0  0  0  0  0  0  0  0
    4.2759   -1.0571   -0.8887 H   0  0  0  0  0  0  0  0  0  0  0  0
    2.5937    0.0709   -3.3281 H   0  0  0  0  0  0  0  0  0  0  0  0
   -5.6067    1.7820    1.4856 H   0  0  0  0  0  0  0  0  0  0  0  0
    7.1020    1.0663    1.9676 H   0  0  0  0  0  0  0  0  0  0  0  0
    8.3522    1.6440    0.8650 H   0  0  0  0  0  0  0  0  0  0  0  0
    6.6606    1.8415    0.4211 H   0  0  0  0  0  0  0  0  0  0  0  0
    9.3012   -2.5437   -0.8019 H   0  0  0  0  0  0  0  0  0  0  0  0
   -6.2133   -4.4647   -0.3553 H   0  0  0  0  0  0  0  0  0  0  0  0
   -5.1060   -4.3870    1.0336 H   0  0  0  0  0  0  0  0  0  0  0  0
   -4.4696   -4.2661   -0.6403 H   0  0  0  0  0  0  0  0  0  0  0  0
   -9.2472    0.6244   -2.0021 H   0  0  0  0  0  0  0  0  0  0  0  0
   -8.4716   -0.8437   -2.4701 H   0  0  0  0  0  0  0  0  0  0  0  0
  1 15  1  0  0  0  0
  1 19  1  0  0  0  0
  2 26  1  0  0  0  0
  2 32  1  0  0  0  0
  3 29  1  0  0  0  0
  3 31  1  0  0  0  0
  4 17  2  0  0  0  0
  5 21  1  0  0  0  0
  5 41  1  0  0  0  0
  6 21  2  0  0  0  0
  7 22  2  0  0  0  0
  8 11  1  0  0  0  0
  8 33  1  0  0  0  0
  9 15  1  0  0  0  0
  9 17  1  0  0  0  0
  9 18  1  0  0  0  0
 10 16  1  0  0  0  0
 10 22  1  0  0  0  0
 10 38  1  0  0  0  0
 11 24  2  3  0  0  0
 12 27  1  0  0  0  0
 12 31  2  0  0  0  0
 13 28  1  0  0  0  0
 13 32  2  0  0  0  0
 14 31  1  0  0  0  0
 14 50  1  0  0  0  0
 14 51  1  0  0  0  0
 15 16  1  0  0  0  0
 15 34  1  0  0  0  0
 16 17  1  0  0  0  0
 16 35  1  0  0  0  0
 18 20  2  0  0  0  0
 18 21  1  0  0  0  0
 19 20  1  0  0  0  0
 19 36  1  0  0  0  0
 19 37  1  0  0  0  0
 20 23  1  0  0  0  0
 22 24  1  0  0  0  0
 23 25  2  3  0  0  0
 23 39  1  0  0  0  0
 24 27  1  0  0  0  0
 25 26  1  0  0  0  0
 25 40  1  0  0  0  0
 26 28  2  0  0  0  0
 27 29  2  0  0  0  0
 28 30  1  0  0  0  0
 29 42  1  0  0  0  0
 30 43  1  0  0  0  0
 30 44  1  0  0  0  0
 30 45  1  0  0  0  0
 32 46  1  0  0  0  0
 33 47  1  0  0  0  0
 33 48  1  0  0  0  0
 33 49  1  0  0  0  0
M  END
> <PUBCHEM_COMPOUND_CID>
53432469

> <PUBCHEM_CONFORMER_RMSD>
1

> <PUBCHEM_CONFORMER_DIVERSEORDER>
1
220
82
146
198
85
64
209
154
105
202
73
173
115
219
142
218
191
140
102
54
186
163
63
206
74
172
66
90
197
217
84
62
119
205
190
203
69
171
111
152
60
145
183
87
151
180
159
178
67
136
192
114
117
100
47
71
128
141
113
94
188
42
23
35
176
170
147
118
122
212
53
104
55
49
125
177
38
174
187
179
28
195
95
101
149
160
80
167
120
32
127
9
166
184
200
22
6
185
91
189
199
138
43
33
27
137
106
83
139
112
181
97
175
194
34
196
24
182
68
109
99
10
51
165
204
144
31
155
123
210
110
96
45
143
70
7
134
148
88
20
58
16
25
116
76
11
168
124
126
40
169
21
158
214
56
18
36
150
193
132
89
59
50
14
5
75
153
207
156
164
12
215
30
98
107
19
52
135
37
157
161
208
29
78
211
41
26
57
81
130
108
79
48
72
8
77
216
93
2
17
86
121
92
133
44
13
61
201
162
213
39
103
3
46
131
129
65
4
15

> <PUBCHEM_MMFF94_PARTIAL_CHARGES>
41
1 -0.45
10 -0.65
11 -0.51
12 -0.57
13 -0.57
14 -0.88
15 0.44
16 0.28
17 0.58
18 0.12
19 0.37
2 -0.08
20 -0.14
21 0.71
22 0.63
23 -0.15
24 0.54
25 -0.11
26 -0.01
27 0.14
28 0.05
29 -0.11
3 -0.08
30 0.18
31 0.46
32 0.23
33 0.28
38 0.37
39 0.15
4 -0.57
40 0.15
41 0.5
42 0.15
46 0.15
5 -0.65
50 0.4
51 0.4
6 -0.57
7 -0.57
8 -0.22
9 -0.39

> <PUBCHEM_EFFECTIVE_ROTOR_COUNT>
8.6

> <PUBCHEM_PHARMACOPHORE_FEATURES>
14
1 10 donor
1 11 acceptor
1 13 acceptor
1 14 donor
1 4 acceptor
1 5 acceptor
1 6 acceptor
1 7 acceptor
3 12 14 31 cation
3 5 6 21 anion
4 9 15 16 17 rings
5 2 13 26 28 32 rings
5 3 12 27 29 31 rings
6 1 9 15 18 19 20 rings

> <PUBCHEM_HEAVY_ATOM_COUNT>
33

> <PUBCHEM_ATOM_DEF_STEREO_COUNT>
0

> <PUBCHEM_ATOM_UDEF_STEREO_COUNT>
2

> <PUBCHEM_BOND_DEF_STEREO_COUNT>
0

> <PUBCHEM_BOND_UDEF_STEREO_COUNT>
2

> <PUBCHEM_ISOTOPIC_ATOM_COUNT>
0

> <PUBCHEM_COMPONENT_COUNT>
1

> <PUBCHEM_CACTVS_TAUTO_COUNT>
14

> <PUBCHEM_CONFORMER_ID>
032F509500000001

> <PUBCHEM_MMFF94_ENERGY>
85.8705

> <PUBCHEM_FEATURE_SELFOVERLAP>
71.364

> <PUBCHEM_SHAPE_FINGERPRINT>
10 15 15554440800168778568
10369192 42 11674878896799725515
10391435 84 18340199778160950762
106641 1 14476955692530948396
11331351 85 18186805755238954148
11724838 91 13686292478661510437
11796584 16 18413392042513199115
12643181 29 18411699885596909667
12664476 115 13262394467287540127
13560911 23 16558754494682313203
13782708 43 18410011001846224290
13885169 127 18271244919815753473
13947934 56 18261108638884944783
14117953 113 18040434373676502895
14251764 18 13901906704689207752
14849402 71 11239991261483537090
15064981 113 18336532834616505805
15183329 4 15719389542556431233
15301273 46 18342453734179794744
16087824 20 16660916670477324933
18603816 31 17846486050951050311
19377110 9 12247689301080544391
21223535 225 16443051803764434455
22224240 67 14620789384740800116
23559900 14 18200025283262585697
23576562 1 17604144961115984357
249057 3 17458349645182489809
3004659 81 17531245075712993681
335352 9 16370729231550575505
4017518 198 18413388722367154351
4173938 188 14045443588820492311
5104073 3 14332585357812782611
5758199 1 12103844553545946556
59682541 35 14333401251164397302
9689198 14 8646773296206336194

> <PUBCHEM_SHAPE_MULTIPOLES>
631.44
26.61
2.41
1.89
2.87
2.76
0.28
11.5
4.05
-1.9
-0.45
-0.3
-0.75
1.18

> <PUBCHEM_SHAPE_SELFOVERLAP>
1321.723

> <PUBCHEM_SHAPE_VOLUME>
361.2

> <PUBCHEM_COORDINATE_TYPE>
2
5
10

$$$$
