53396029
  -OEChem-09252021183D

 41 43  0     1  0  0  0  0  0999 V2000
   -2.6032   -0.6222    2.4597 S   0  0  0  0  0  0  0  0  0  0  0  0
    3.5675    3.0244    0.6595 S   0  0  0  0  0  0  0  0  0  0  0  0
   -2.0550   -1.7143   -2.0283 O   0  0  0  0  0  0  0  0  0  0  0  0
   -3.7350    0.9389   -2.4606 O   0  0  0  0  0  0  0  0  0  0  0  0
   -5.6063   -0.1533   -1.7290 O   0  0  0  0  0  0  0  0  0  0  0  0
    1.3058   -1.3200    2.1546 O   0  0  0  0  0  0  0  0  0  0  0  0
    4.7974   -1.3884   -0.4545 O   0  0  0  0  0  0  0  0  0  0  0  0
   -2.6363   -0.3659   -0.1829 N   0  0  0  0  0  0  0  0  0  0  0  0
    0.4387   -1.1997   -0.0236 N   0  0  0  0  0  0  0  0  0  0  0  0
    3.5660   -1.8522    0.0288 N   0  0  0  0  0  0  0  0  0  0  0  0
    4.1246    0.9099   -0.7192 N   0  0  0  0  0  0  0  0  0  0  0  0
    5.1931    2.8911   -1.4416 N   0  0  0  0  0  0  0  0  0  0  0  0
   -1.7076   -0.2736    0.9291 C   0  0  2  0  0  0  0  0  0  0  0  0
   -0.9652   -1.4633    0.2824 C   0  0  1  0  0  0  0  0  0  0  0  0
   -1.9272   -1.2478   -0.9205 C   0  0  0  0  0  0  0  0  0  0  0  0
   -3.8083    0.3169   -0.2469 C   0  0  0  0  0  0  0  0  0  0  0  0
   -3.7405    0.7892    2.2457 C   0  0  0  0  0  0  0  0  0  0  0  0
   -4.3405    0.9121    0.8470 C   0  0  0  0  0  0  0  0  0  0  0  0
   -5.5936    1.7548    0.8406 C   0  0  0  0  0  0  0  0  0  0  0  0
   -4.5059    0.3253   -1.5413 C   0  0  0  0  0  0  0  0  0  0  0  0
    1.4226   -1.1571    0.9506 C   0  0  0  0  0  0  0  0  0  0  0  0
    2.7930   -0.8744    0.3941 C   0  0  0  0  0  0  0  0  0  0  0  0
    3.2437    0.5386    0.2778 C   0  0  0  0  0  0  0  0  0  0  0  0
    2.8300    1.5470    1.1228 C   0  0  0  0  0  0  0  0  0  0  0  0
    4.3661    2.1978   -0.6148 C   0  0  0  0  0  0  0  0  0  0  0  0
    5.5762   -2.5139   -0.8295 C   0  0  0  0  0  0  0  0  0  0  0  0
   -1.1515    0.6723    0.9307 H   0  0  0  0  0  0  0  0  0  0  0  0
   -1.1036   -2.4444    0.7522 H   0  0  0  0  0  0  0  0  0  0  0  0
   -4.5413    0.6509    2.9800 H   0  0  0  0  0  0  0  0  0  0  0  0
   -3.2116    1.7148    2.4979 H   0  0  0  0  0  0  0  0  0  0  0  0
    0.7239   -1.0423   -0.9875 H   0  0  0  0  0  0  0  0  0  0  0  0
   -5.4002    2.7179    1.3255 H   0  0  0  0  0  0  0  0  0  0  0  0
   -5.9589    1.9757   -0.1659 H   0  0  0  0  0  0  0  0  0  0  0  0
   -6.3941    1.2457    1.3871 H   0  0  0  0  0  0  0  0  0  0  0  0
   -4.1636    0.9667   -3.3426 H   0  0  0  0  0  0  0  0  0  0  0  0
    2.1546    1.5001    1.9654 H   0  0  0  0  0  0  0  0  0  0  0  0
    5.3523    3.8866   -1.3265 H   0  0  0  0  0  0  0  0  0  0  0  0
    5.6840    2.4406   -2.2069 H   0  0  0  0  0  0  0  0  0  0  0  0
    5.7555   -3.1585    0.0366 H   0  0  0  0  0  0  0  0  0  0  0  0
    5.0737   -3.0776   -1.6216 H   0  0  0  0  0  0  0  0  0  0  0  0
    6.5383   -2.1586   -1.2078 H   0  0  0  0  0  0  0  0  0  0  0  0
  1 13  1  0  0  0  0
  1 17  1  0  0  0  0
  2 24  1  0  0  0  0
  2 25  1  0  0  0  0
  3 15  2  0  0  0  0
  4 20  1  0  0  0  0
  4 35  1  0  0  0  0
  5 20  2  0  0  0  0
  6 21  2  0  0  0  0
  7 10  1  0  0  0  0
  7 26  1  0  0  0  0
  8 13  1  0  0  0  0
  8 15  1  0  0  0  0
  8 16  1  0  0  0  0
  9 14  1  0  0  0  0
  9 21  1  0  0  0  0
  9 31  1  0  0  0  0
 10 22  2  3  0  0  0
 11 23  1  0  0  0  0
 11 25  2  0  0  0  0
 12 25  1  0  0  0  0
 12 37  1  0  0  0  0
 12 38  1  0  0  0  0
 13 14  1  0  0  0  0
 13 27  1  0  0  0  0
 14 15  1  0  0  0  0
 14 28  1  0  0  0  0
 16 18  2  0  0  0  0
 16 20  1  0  0  0  0
 17 18  1  0  0  0  0
 17 29  1  0  0  0  0
 17 30  1  0  0  0  0
 18 19  1  0  0  0  0
 19 32  1  0  0  0  0
 19 33  1  0  0  0  0
 19 34  1  0  0  0  0
 21 22  1  0  0  0  0
 22 23  1  0  0  0  0
 23 24  2  0  0  0  0
 24 36  1  0  0  0  0
 26 39  1  0  0  0  0
 26 40  1  0  0  0  0
 26 41  1  0  0  0  0
M  END
> <PUBCHEM_COMPOUND_CID>
53396029

> <PUBCHEM_CONFORMER_RMSD>
0.8

> <PUBCHEM_CONFORMER_DIVERSEORDER>
1
112
5
129
207
72
37
77
156
150
9
199
187
185
34
99
89
201
193
69
30
195
169
189
135
154
101
36
122
204
145
108
68
180
56
197
186
83
153
85
79
10
64
35
174
21
81
82
86
71
120
121
157
67
151
15
91
32
173
45
3
50
141
74
167
28
165
96
203
171
65
123
2
84
183
133
93
13
115
206
149
98
138
146
162
40
57
61
142
6
205
119
26
131
114
16
166
31
178
27
190
95
144
7
94
103
110
70
43
52
126
200
12
76
179
191
73
181
102
164
175
8
39
106
75
100
42
90
160
170
161
47
51
139
14
105
60
17
38
25
176
109
137
107
4
177
188
55
143
92
172
182
152
97
148
125
20
66
41
111
158
184
128
58
59
140
49
23
116
46
78
159
194
198
18
22
33
163
134
54
130
136
48
62
88
155
113
87
202
29
63
104
132
196
24
117
127
147
44
118
80
168
192
53
124
19
11

> <PUBCHEM_MMFF94_PARTIAL_CHARGES>
31
1 -0.45
10 -0.51
11 -0.57
12 -0.88
13 0.44
14 0.28
15 0.58
16 0.12
17 0.37
18 -0.28
19 0.14
2 -0.08
20 0.71
21 0.63
22 0.54
23 0.14
24 -0.11
25 0.46
26 0.28
3 -0.57
31 0.37
35 0.5
36 0.15
37 0.4
38 0.4
4 -0.65
5 -0.57
6 -0.57
7 -0.22
8 -0.39
9 -0.65

> <PUBCHEM_EFFECTIVE_ROTOR_COUNT>
6.6

> <PUBCHEM_PHARMACOPHORE_FEATURES>
12
1 10 acceptor
1 12 donor
1 3 acceptor
1 4 acceptor
1 5 acceptor
1 6 acceptor
1 9 donor
3 11 12 25 cation
3 4 5 20 anion
4 8 13 14 15 rings
5 2 11 23 24 25 rings
6 1 8 13 16 17 18 rings

> <PUBCHEM_HEAVY_ATOM_COUNT>
26

> <PUBCHEM_ATOM_DEF_STEREO_COUNT>
0

> <PUBCHEM_ATOM_UDEF_STEREO_COUNT>
2

> <PUBCHEM_BOND_DEF_STEREO_COUNT>
0

> <PUBCHEM_BOND_UDEF_STEREO_COUNT>
1

> <PUBCHEM_ISOTOPIC_ATOM_COUNT>
0

> <PUBCHEM_COMPONENT_COUNT>
1

> <PUBCHEM_CACTVS_TAUTO_COUNT>
14

> <PUBCHEM_CONFORMER_ID>
032EC23D00000001

> <PUBCHEM_MMFF94_ENERGY>
64.8237

> <PUBCHEM_FEATURE_SELFOVERLAP>
61.211

> <PUBCHEM_SHAPE_FINGERPRINT>
10319926 262 15140949635068924056
10366900 7 17822289029195346187
10498660 4 18267580385088935240
12166972 35 17775559806642800682
12403259 415 17676210152170336361
12616971 3 18131355176589668219
13590594 115 18267311928738321760
14251751 18 15051718785943670447
14341114 328 13118004396302741258
14848178 96 18335419127452305320
15081414 286 18187936105280495772
15183329 4 17632024069747748308
19377110 9 12179849437382518030
193927 3 10447663412757525864
20554085 129 15647875078137045741
20612939 158 18411140234251698486
21033648 144 18410007758201293292
21033648 29 17313100826649107277
21033650 10 15912507743590062778
21503847 285 18334300842527272904
21792961 116 17823988827898646294
21864079 5 17895181216951649412
22122407 14 18193854660508898225
22907989 373 16987721379925869099
23559900 14 18343575231740397570
340366 18 18059861627933273462
341906 21 15864066559683750585
474 4 18334570287147626018
497634 4 18341330076583380599
5081480 168 18190484713261660252
5758199 1 11026101074753039702
57724786 102 18335150786237724396
633830 44 18260266369527372122
7808743 9 17387699542599114676
90127 26 17822009791743557437
9971528 1 18130503042768597122

> <PUBCHEM_SHAPE_MULTIPOLES>
488.52
13.64
2.78
2.12
1.45
1.05
0.03
4.36
-4.38
5.05
-0.4
-2.67
0.03
-1.18

> <PUBCHEM_SHAPE_SELFOVERLAP>
1015.32

> <PUBCHEM_SHAPE_VOLUME>
281.5

> <PUBCHEM_COORDINATE_TYPE>
2
5
10

$$$$
