2676
  -OEChem-09252021193D

 67 68  0     1  0  0  0  0  0999 V2000
   -1.6566    4.7277   -0.9952 F   0  0  0  0  0  0  0  0  0  0  0  0
    3.5205    2.3651    1.5243 O   0  0  0  0  0  0  0  0  0  0  0  0
   -2.9067   -3.0010    0.2754 O   0  0  0  0  0  0  0  0  0  0  0  0
   -5.1276   -0.9374   -1.3092 O   0  0  0  0  0  0  0  0  0  0  0  0
   -8.0511    0.7926    1.3737 O   0  0  0  0  0  0  0  0  0  0  0  0
   -7.7218   -1.2266    0.3879 O   0  0  0  0  0  0  0  0  0  0  0  0
    3.5016   -1.7953    0.0245 N   0  0  0  0  0  0  0  0  0  0  0  0
    3.9213   -0.5173    0.1586 C   0  0  0  0  0  0  0  0  0  0  0  0
    2.1971   -1.9697   -0.2845 C   0  0  0  0  0  0  0  0  0  0  0  0
    3.1024    0.5889   -0.0011 C   0  0  0  0  0  0  0  0  0  0  0  0
    1.2973   -0.9315   -0.4648 C   0  0  0  0  0  0  0  0  0  0  0  0
    1.7667    0.3692   -0.3186 C   0  0  0  0  0  0  0  0  0  0  0  0
    1.7657   -3.3944   -0.4254 C   0  0  0  0  0  0  0  0  0  0  0  0
    5.3656   -0.3459    0.4996 C   0  0  0  0  0  0  0  0  0  0  0  0
    3.6520    1.9681    0.1657 C   0  0  0  0  0  0  0  0  0  0  0  0
    0.8745    1.5040   -0.4949 C   0  0  0  0  0  0  0  0  0  0  0  0
   -0.1086   -1.2143   -0.8007 C   0  0  0  0  0  0  0  0  0  0  0  0
   -2.5343   -1.7166   -0.2140 C   0  0  1  0  0  0  0  0  0  0  0  0
    1.9264   -4.1864    0.8844 C   0  0  0  0  0  0  0  0  0  0  0  0
    2.4977   -4.1171   -1.5700 C   0  0  0  0  0  0  0  0  0  0  0  0
    5.7250   -0.9695    1.8606 C   0  0  0  0  0  0  0  0  0  0  0  0
    6.2962   -0.9013   -0.5938 C   0  0  0  0  0  0  0  0  0  0  0  0
   -3.4451   -0.6383    0.3992 C   0  0  0  0  0  0  0  0  0  0  0  0
   -1.0861   -1.4196    0.0974 C   0  0  0  0  0  0  0  0  0  0  0  0
   -4.9370   -0.8519    0.1008 C   0  0  1  0  0  0  0  0  0  0  0  0
    0.7220    2.0819   -1.7552 C   0  0  0  0  0  0  0  0  0  0  0  0
    0.1721    2.0151    0.5964 C   0  0  0  0  0  0  0  0  0  0  0  0
   -5.8289    0.2491    0.6788 C   0  0  0  0  0  0  0  0  0  0  0  0
   -0.1330    3.1709   -1.9243 C   0  0  0  0  0  0  0  0  0  0  0  0
   -0.6829    3.1041    0.4275 C   0  0  0  0  0  0  0  0  0  0  0  0
   -0.8355    3.6820   -0.8330 C   0  0  0  0  0  0  0  0  0  0  0  0
    4.0303    3.6744    1.7368 C   0  0  0  0  0  0  0  0  0  0  0  0
   -7.2793   -0.1593    0.7931 C   0  0  0  0  0  0  0  0  0  0  0  0
    0.7044   -3.4720   -0.6799 H   0  0  0  0  0  0  0  0  0  0  0  0
    5.6579    0.6964    0.6203 H   0  0  0  0  0  0  0  0  0  0  0  0
    4.6789    2.0812   -0.1948 H   0  0  0  0  0  0  0  0  0  0  0  0
    3.1046    2.6837   -0.4585 H   0  0  0  0  0  0  0  0  0  0  0  0
   -0.3317   -1.2471   -1.8641 H   0  0  0  0  0  0  0  0  0  0  0  0
   -2.6769   -1.7346   -1.3010 H   0  0  0  0  0  0  0  0  0  0  0  0
   -3.3117   -0.6200    1.4888 H   0  0  0  0  0  0  0  0  0  0  0  0
   -3.1386    0.3431    0.0131 H   0  0  0  0  0  0  0  0  0  0  0  0
    2.9766   -4.2500    1.1903 H   0  0  0  0  0  0  0  0  0  0  0  0
    1.3690   -3.7082    1.6975 H   0  0  0  0  0  0  0  0  0  0  0  0
    1.5469   -5.2074    0.7697 H   0  0  0  0  0  0  0  0  0  0  0  0
    3.5757   -4.1780   -1.3832 H   0  0  0  0  0  0  0  0  0  0  0  0
    2.3519   -3.5886   -2.5186 H   0  0  0  0  0  0  0  0  0  0  0  0
    2.1189   -5.1377   -1.6902 H   0  0  0  0  0  0  0  0  0  0  0  0
    6.7746   -0.7811    2.1108 H   0  0  0  0  0  0  0  0  0  0  0  0
    5.1057   -0.5438    2.6580 H   0  0  0  0  0  0  0  0  0  0  0  0
    5.5692   -2.0541    1.8590 H   0  0  0  0  0  0  0  0  0  0  0  0
    6.0905   -0.4219   -1.5573 H   0  0  0  0  0  0  0  0  0  0  0  0
    7.3460   -0.7163   -0.3419 H   0  0  0  0  0  0  0  0  0  0  0  0
    6.1664   -1.9817   -0.7219 H   0  0  0  0  0  0  0  0  0  0  0  0
   -0.8310   -1.3867    1.1560 H   0  0  0  0  0  0  0  0  0  0  0  0
   -5.2372   -1.8202    0.5176 H   0  0  0  0  0  0  0  0  0  0  0  0
    1.2625    1.6958   -2.6163 H   0  0  0  0  0  0  0  0  0  0  0  0
    0.2799    1.5766    1.5858 H   0  0  0  0  0  0  0  0  0  0  0  0
   -5.7848    1.1451    0.0496 H   0  0  0  0  0  0  0  0  0  0  0  0
   -5.4919    0.5000    1.6911 H   0  0  0  0  0  0  0  0  0  0  0  0
   -0.2520    3.6212   -2.9053 H   0  0  0  0  0  0  0  0  0  0  0  0
   -1.2303    3.5021    1.2768 H   0  0  0  0  0  0  0  0  0  0  0  0
   -2.2949   -3.6521   -0.1091 H   0  0  0  0  0  0  0  0  0  0  0  0
   -4.8346   -0.0967   -1.7006 H   0  0  0  0  0  0  0  0  0  0  0  0
    5.0967    3.7147    1.4948 H   0  0  0  0  0  0  0  0  0  0  0  0
    3.4782    4.4037    1.1360 H   0  0  0  0  0  0  0  0  0  0  0  0
    3.9029    3.9256    2.7932 H   0  0  0  0  0  0  0  0  0  0  0  0
   -8.9909    0.5172    1.4314 H   0  0  0  0  0  0  0  0  0  0  0  0
  1 31  1  0  0  0  0
  2 15  1  0  0  0  0
  2 32  1  0  0  0  0
  3 18  1  0  0  0  0
  3 62  1  0  0  0  0
  4 25  1  0  0  0  0
  4 63  1  0  0  0  0
  5 33  1  0  0  0  0
  5 67  1  0  0  0  0
  6 33  2  0  0  0  0
  7  8  2  0  0  0  0
  7  9  1  0  0  0  0
  8 10  1  0  0  0  0
  8 14  1  0  0  0  0
  9 11  2  0  0  0  0
  9 13  1  0  0  0  0
 10 12  2  0  0  0  0
 10 15  1  0  0  0  0
 11 12  1  0  0  0  0
 11 17  1  0  0  0  0
 12 16  1  0  0  0  0
 13 19  1  0  0  0  0
 13 20  1  0  0  0  0
 13 34  1  0  0  0  0
 14 21  1  0  0  0  0
 14 22  1  0  0  0  0
 14 35  1  0  0  0  0
 15 36  1  0  0  0  0
 15 37  1  0  0  0  0
 16 26  2  0  0  0  0
 16 27  1  0  0  0  0
 17 24  2  3  0  0  0
 17 38  1  0  0  0  0
 18 23  1  0  0  0  0
 18 24  1  0  0  0  0
 18 39  1  0  0  0  0
 19 42  1  0  0  0  0
 19 43  1  0  0  0  0
 19 44  1  0  0  0  0
 20 45  1  0  0  0  0
 20 46  1  0  0  0  0
 20 47  1  0  0  0  0
 21 48  1  0  0  0  0
 21 49  1  0  0  0  0
 21 50  1  0  0  0  0
 22 51  1  0  0  0  0
 22 52  1  0  0  0  0
 22 53  1  0  0  0  0
 23 25  1  0  0  0  0
 23 40  1  0  0  0  0
 23 41  1  0  0  0  0
 24 54  1  0  0  0  0
 25 28  1  0  0  0  0
 25 55  1  0  0  0  0
 26 29  1  0  0  0  0
 26 56  1  0  0  0  0
 27 30  2  0  0  0  0
 27 57  1  0  0  0  0
 28 33  1  0  0  0  0
 28 58  1  0  0  0  0
 28 59  1  0  0  0  0
 29 31  2  0  0  0  0
 29 60  1  0  0  0  0
 30 31  1  0  0  0  0
 30 61  1  0  0  0  0
 32 64  1  0  0  0  0
 32 65  1  0  0  0  0
 32 66  1  0  0  0  0
M  END
> <PUBCHEM_COMPOUND_CID>
2676

> <PUBCHEM_CONFORMER_RMSD>
1

> <PUBCHEM_CONFORMER_DIVERSEORDER>
1
20
46
7
25
45
34
4
14
12
21
36
3
37
19
35
8
33
26
23
30
18
2
42
5
41
47
50
29
6
10
44
48
28
13
17
40
38
27
11
9
15
49
22
39
31
24
43
16
32

> <PUBCHEM_MMFF94_PARTIAL_CHARGES>
35
1 -0.19
10 -0.14
11 0.03
13 0.14
14 0.14
15 0.42
17 -0.18
18 0.42
2 -0.56
24 -0.29
25 0.28
26 -0.15
27 -0.15
28 0.06
29 -0.15
3 -0.68
30 -0.15
31 0.19
32 0.28
33 0.66
38 0.15
4 -0.68
5 -0.65
54 0.15
56 0.15
57 0.15
6 -0.57
60 0.15
61 0.15
62 0.4
63 0.4
67 0.5
7 -0.62
8 0.17
9 0.17

> <PUBCHEM_EFFECTIVE_ROTOR_COUNT>
11

> <PUBCHEM_PHARMACOPHORE_FEATURES>
13
1 2 acceptor
1 3 acceptor
1 3 donor
1 4 acceptor
1 4 donor
1 5 acceptor
1 6 acceptor
1 7 acceptor
3 13 19 20 hydrophobe
3 14 21 22 hydrophobe
3 5 6 33 anion
6 16 26 27 29 30 31 rings
6 7 8 9 10 11 12 rings

> <PUBCHEM_HEAVY_ATOM_COUNT>
33

> <PUBCHEM_ATOM_DEF_STEREO_COUNT>
0

> <PUBCHEM_ATOM_UDEF_STEREO_COUNT>
2

> <PUBCHEM_BOND_DEF_STEREO_COUNT>
0

> <PUBCHEM_BOND_UDEF_STEREO_COUNT>
1

> <PUBCHEM_ISOTOPIC_ATOM_COUNT>
0

> <PUBCHEM_COMPONENT_COUNT>
1

> <PUBCHEM_CACTVS_TAUTO_COUNT>
3

> <PUBCHEM_CONFORMER_ID>
00000A7400000001

> <PUBCHEM_MMFF94_ENERGY>
90.5968

> <PUBCHEM_FEATURE_SELFOVERLAP>
66.032

> <PUBCHEM_SHAPE_FINGERPRINT>
10006869 2 18059573641717959872
10162869 55 18412823621689593863
10190108 129 18410016494455222446
10439779 11 18051686947542198563
10688039 33 18113621149387776717
11646440 116 18334016090501136227
12788726 201 18187641358679974642
13140716 1 18193825154347272522
13540713 4 17981320093699173846
140371 6 18261403229763284846
14178342 30 17331104509652821258
14790565 3 17544197542038365796
15081414 286 18408042922865617429
15131766 46 15480671365532204912
15420108 30 18056467585640540470
20511986 3 17703501186387075113
20642791 178 17901113228270632365
20739085 24 18336267959018486844
21033648 29 17842551031288084040
24771293 8 18200019785397984424
24893992 56 18186804700047986315
3178227 256 18410570687408079746
350125 39 18411415138324604848
5104073 3 18264764535657396011
513532 50 18059031548124916575

> <PUBCHEM_SHAPE_MULTIPOLES>
637.52
14.95
5.49
1.44
29.18
1.64
0.06
-4.13
-6.99
-3.11
0.98
-0.67
0.7
1.33

> <PUBCHEM_SHAPE_SELFOVERLAP>
1325.136

> <PUBCHEM_SHAPE_VOLUME>
366.6

> <PUBCHEM_COORDINATE_TYPE>
2
5
10

$$$$
