2722
  -OEChem-09252021193D

 18 19  0     0  0  0  0  0  0999 V2000
    0.1120   -3.3227   -0.0008 Cl  0  0  0  0  0  0  0  0  0  0  0  0
   -3.6847    0.4252   -0.0004 Cl  0  0  0  0  0  0  0  0  0  0  0  0
   -1.4152    2.3529   -0.0006 O   0  0  0  0  0  0  0  0  0  0  0  0
    1.2399    1.7282    0.0000 N   0  0  0  0  0  0  0  0  0  0  0  0
    0.7069   -0.6219    0.0001 C   0  0  0  0  0  0  0  0  0  0  0  0
    0.3285    0.7369    0.0001 C   0  0  0  0  0  0  0  0  0  0  0  0
   -1.0307    1.0383    0.0003 C   0  0  0  0  0  0  0  0  0  0  0  0
   -0.2713   -1.6309    0.0004 C   0  0  0  0  0  0  0  0  0  0  0  0
    2.0749   -0.9260    0.0001 C   0  0  0  0  0  0  0  0  0  0  0  0
   -2.0033    0.0355    0.0004 C   0  0  0  0  0  0  0  0  0  0  0  0
   -1.6234   -1.3009    0.0005 C   0  0  0  0  0  0  0  0  0  0  0  0
    3.0163    0.0932   -0.0001 C   0  0  0  0  0  0  0  0  0  0  0  0
    2.5502    1.3922    0.0000 C   0  0  0  0  0  0  0  0  0  0  0  0
    2.4432   -1.9479    0.0001 H   0  0  0  0  0  0  0  0  0  0  0  0
   -2.3806   -2.0820    0.0003 H   0  0  0  0  0  0  0  0  0  0  0  0
    4.0781   -0.1233   -0.0001 H   0  0  0  0  0  0  0  0  0  0  0  0
    3.2395    2.2302    0.0000 H   0  0  0  0  0  0  0  0  0  0  0  0
   -2.3874    2.3887   -0.0007 H   0  0  0  0  0  0  0  0  0  0  0  0
  1  8  1  0  0  0  0
  2 10  1  0  0  0  0
  3  7  1  0  0  0  0
  3 18  1  0  0  0  0
  4  6  1  0  0  0  0
  4 13  2  0  0  0  0
  5  6  2  0  0  0  0
  5  8  1  0  0  0  0
  5  9  1  0  0  0  0
  6  7  1  0  0  0  0
  7 10  2  0  0  0  0
  8 11  2  0  0  0  0
  9 12  2  0  0  0  0
  9 14  1  0  0  0  0
 10 11  1  0  0  0  0
 11 15  1  0  0  0  0
 12 13  1  0  0  0  0
 12 16  1  0  0  0  0
 13 17  1  0  0  0  0
M  END
> <PUBCHEM_COMPOUND_CID>
2722

> <PUBCHEM_CONFORMER_RMSD>
0.4

> <PUBCHEM_CONFORMER_DIVERSEORDER>
1

> <PUBCHEM_MMFF94_PARTIAL_CHARGES>
17
1 -0.18
10 0.18
11 -0.15
12 -0.15
13 0.16
14 0.15
15 0.15
16 0.15
17 0.15
18 0.45
2 -0.18
3 -0.53
4 -0.62
6 0.31
7 0.08
8 0.18
9 -0.15

> <PUBCHEM_EFFECTIVE_ROTOR_COUNT>
0

> <PUBCHEM_PHARMACOPHORE_FEATURES>
4
1 3 donor
1 4 acceptor
6 4 5 6 9 12 13 rings
6 5 6 7 8 10 11 rings

> <PUBCHEM_HEAVY_ATOM_COUNT>
13

> <PUBCHEM_ATOM_DEF_STEREO_COUNT>
0

> <PUBCHEM_ATOM_UDEF_STEREO_COUNT>
0

> <PUBCHEM_BOND_DEF_STEREO_COUNT>
0

> <PUBCHEM_BOND_UDEF_STEREO_COUNT>
0

> <PUBCHEM_ISOTOPIC_ATOM_COUNT>
0

> <PUBCHEM_COMPONENT_COUNT>
1

> <PUBCHEM_CACTVS_TAUTO_COUNT>
3

> <PUBCHEM_CONFORMER_ID>
00000AA200000001

> <PUBCHEM_MMFF94_ENERGY>
36.2127

> <PUBCHEM_FEATURE_SELFOVERLAP>
20.329

> <PUBCHEM_SHAPE_FINGERPRINT>
1 1 18410571743289630439
10967382 1 18410855443048668807
11471102 20 18338230471394410989
12382932 28 18267865179995939248
13140716 1 18410574019775200403
13380535 76 18412543236336577894
14325111 11 18410856594200189377
15775835 57 18408609188069430724
16945 1 18338797814666833255
17990270 104 17977101254212977635
193761 8 17762056536548026309
20510252 161 18272651221015544184
20645476 183 17896618347389748246
20645477 70 18265043653472072479
20871998 184 17983866862680740694
21501502 16 18194398025094216694
2334 1 18194683889448596899
23402539 116 18270950336466473454
23402655 69 18268696257033041197
23463225 33 18190738639959658402
23526114 1 17834959672218490143
23552423 10 18122066390462414591
23559900 14 18127418848587080270
241688 4 17185877190465108723
2748010 2 18337959016244163847
5084963 1 18131068203759412816
528886 8 18411414042252843547
53812653 166 18342172297488537728
54173680 148 18121500421469016890
7364860 26 18124594176269009247
81228 2 17833823155242169155

> <PUBCHEM_SHAPE_MULTIPOLES>
260.42
4.22
2.78
0.61
0.98
1.79
0
-1.55
0
-0.01
0
0.01
0.04
0

> <PUBCHEM_SHAPE_SELFOVERLAP>
555.898

> <PUBCHEM_SHAPE_VOLUME>
146.9

> <PUBCHEM_COORDINATE_TYPE>
2
5
10

$$$$
