54677440
  -OEChem-09252021193D

 56 59  0     1  0  0  0  0  0999 V2000
    4.6760   -3.0509    1.0884 Cl  0  0  0  0  0  0  0  0  0  0  0  0
   -2.4708    1.1520   -2.1047 O   0  0  0  0  0  0  0  0  0  0  0  0
    2.1807   -2.8853    0.0300 O   0  0  0  0  0  0  0  0  0  0  0  0
   -0.1089    2.2284   -2.0401 O   0  0  0  0  0  0  0  0  0  0  0  0
   -1.8261    2.5873    0.4683 O   0  0  0  0  0  0  0  0  0  0  0  0
    2.1421    2.6465   -0.5714 O   0  0  0  0  0  0  0  0  0  0  0  0
   -4.2318   -1.4181    1.4708 O   0  0  0  0  0  0  0  0  0  0  0  0
    4.6446    2.5784   -0.5685 O   0  0  0  0  0  0  0  0  0  0  0  0
   -4.6833    1.3269    2.5975 O   0  0  0  0  0  0  0  0  0  0  0  0
   -4.0863   -1.1694   -1.5442 N   0  0  0  0  0  0  0  0  0  0  0  0
   -2.4666    1.5177    3.2154 N   0  0  0  0  0  0  0  0  0  0  0  0
   -1.6527   -0.8486   -1.0396 C   0  0  2  0  0  0  0  0  0  0  0  0
    0.8709   -0.9414   -0.5520 C   0  0  2  0  0  0  0  0  0  0  0  0
   -0.5365   -1.4150   -0.1393 C   0  0  0  0  0  0  0  0  0  0  0  0
   -1.6577    0.6873   -1.0199 C   0  0  1  0  0  0  0  0  0  0  0  0
   -3.0120   -1.4140   -0.5851 C   0  0  1  0  0  0  0  0  0  0  0  0
    1.9791   -1.5133    0.3992 C   0  0  2  0  0  0  0  0  0  0  0  0
    0.9297    0.5597   -0.7102 C   0  0  0  0  0  0  0  0  0  0  0  0
   -0.2603    1.2385   -1.3209 C   0  0  0  0  0  0  0  0  0  0  0  0
   -2.2135    1.2741    0.2626 C   0  0  0  0  0  0  0  0  0  0  0  0
    3.3022   -0.7720    0.2377 C   0  0  0  0  0  0  0  0  0  0  0  0
   -3.4650   -0.8005    0.7293 C   0  0  0  0  0  0  0  0  0  0  0  0
    2.0462    1.2746   -0.4626 C   0  0  0  0  0  0  0  0  0  0  0  0
   -3.0194    0.5857    1.0989 C   0  0  0  0  0  0  0  0  0  0  0  0
    3.3097    0.5884   -0.1268 C   0  0  0  0  0  0  0  0  0  0  0  0
    1.6139   -1.4764    1.8956 C   0  0  0  0  0  0  0  0  0  0  0  0
    4.5224   -1.4118    0.5320 C   0  0  0  0  0  0  0  0  0  0  0  0
   -3.7178   -1.6747   -2.8669 C   0  0  0  0  0  0  0  0  0  0  0  0
   -5.3307   -1.7903   -1.0899 C   0  0  0  0  0  0  0  0  0  0  0  0
    4.5397    1.2682   -0.1952 C   0  0  0  0  0  0  0  0  0  0  0  0
   -3.4891    1.1752    2.3658 C   0  0  0  0  0  0  0  0  0  0  0  0
    5.7314   -0.7238    0.4542 C   0  0  0  0  0  0  0  0  0  0  0  0
    5.7398    0.6166    0.0916 C   0  0  0  0  0  0  0  0  0  0  0  0
   -1.4047   -1.1977   -2.0485 H   0  0  0  0  0  0  0  0  0  0  0  0
    1.0516   -1.3526   -1.5577 H   0  0  0  0  0  0  0  0  0  0  0  0
   -0.5640   -2.5118   -0.1761 H   0  0  0  0  0  0  0  0  0  0  0  0
   -0.7376   -1.1330    0.8995 H   0  0  0  0  0  0  0  0  0  0  0  0
   -2.8909   -2.4939   -0.4160 H   0  0  0  0  0  0  0  0  0  0  0  0
    0.7934   -2.1662    2.1214 H   0  0  0  0  0  0  0  0  0  0  0  0
    1.3303   -0.4691    2.2199 H   0  0  0  0  0  0  0  0  0  0  0  0
    2.4432   -1.8041    2.5325 H   0  0  0  0  0  0  0  0  0  0  0  0
   -2.5574    2.1182   -2.0305 H   0  0  0  0  0  0  0  0  0  0  0  0
    2.5543   -2.9077   -0.8678 H   0  0  0  0  0  0  0  0  0  0  0  0
   -2.9579   -1.0625   -3.3596 H   0  0  0  0  0  0  0  0  0  0  0  0
   -3.3786   -2.7168   -2.8355 H   0  0  0  0  0  0  0  0  0  0  0  0
   -4.5787   -1.6311   -3.5456 H   0  0  0  0  0  0  0  0  0  0  0  0
   -5.2005   -2.8374   -0.7929 H   0  0  0  0  0  0  0  0  0  0  0  0
   -5.8007   -1.2291   -0.2768 H   0  0  0  0  0  0  0  0  0  0  0  0
   -6.0809   -1.7725   -1.8907 H   0  0  0  0  0  0  0  0  0  0  0  0
   -2.2337    2.9125    1.2877 H   0  0  0  0  0  0  0  0  0  0  0  0
    1.2619    3.0120   -0.7582 H   0  0  0  0  0  0  0  0  0  0  0  0
    6.6763   -1.2098    0.6847 H   0  0  0  0  0  0  0  0  0  0  0  0
    6.6903    1.1407    0.0352 H   0  0  0  0  0  0  0  0  0  0  0  0
   -1.4883    1.3649    2.9901 H   0  0  0  0  0  0  0  0  0  0  0  0
   -2.6608    1.9352    4.1195 H   0  0  0  0  0  0  0  0  0  0  0  0
    5.5775    2.8523   -0.5550 H   0  0  0  0  0  0  0  0  0  0  0  0
  1 27  1  0  0  0  0
  2 15  1  0  0  0  0
  2 42  1  0  0  0  0
  3 17  1  0  0  0  0
  3 43  1  0  0  0  0
  4 19  2  0  0  0  0
  5 20  1  0  0  0  0
  5 50  1  0  0  0  0
  6 23  1  0  0  0  0
  6 51  1  0  0  0  0
  7 22  2  0  0  0  0
  8 30  1  0  0  0  0
  8 56  1  0  0  0  0
  9 31  2  0  0  0  0
 10 16  1  0  0  0  0
 10 28  1  0  0  0  0
 10 29  1  0  0  0  0
 11 31  1  0  0  0  0
 11 54  1  0  0  0  0
 11 55  1  0  0  0  0
 12 14  1  0  0  0  0
 12 15  1  0  0  0  0
 12 16  1  0  0  0  0
 12 34  1  0  0  0  0
 13 14  1  0  0  0  0
 13 17  1  0  0  0  0
 13 18  1  0  0  0  0
 13 35  1  0  0  0  0
 14 36  1  0  0  0  0
 14 37  1  0  0  0  0
 15 19  1  0  0  0  0
 15 20  1  0  0  0  0
 16 22  1  0  0  0  0
 16 38  1  0  0  0  0
 17 21  1  0  0  0  0
 17 26  1  0  0  0  0
 18 19  1  0  0  0  0
 18 23  2  0  0  0  0
 20 24  2  0  0  0  0
 21 25  1  0  0  0  0
 21 27  2  0  0  0  0
 22 24  1  0  0  0  0
 23 25  1  0  0  0  0
 24 31  1  0  0  0  0
 25 30  2  0  0  0  0
 26 39  1  0  0  0  0
 26 40  1  0  0  0  0
 26 41  1  0  0  0  0
 27 32  1  0  0  0  0
 28 44  1  0  0  0  0
 28 45  1  0  0  0  0
 28 46  1  0  0  0  0
 29 47  1  0  0  0  0
 29 48  1  0  0  0  0
 29 49  1  0  0  0  0
 30 33  1  0  0  0  0
 32 33  2  0  0  0  0
 32 52  1  0  0  0  0
 33 53  1  0  0  0  0
M  END
> <PUBCHEM_COMPOUND_CID>
54677440

> <PUBCHEM_CONFORMER_RMSD>
0.8

> <PUBCHEM_CONFORMER_DIVERSEORDER>
2
34
29
24
22
17
49
28
20
26
38
10
1
12
3
33
18
6
46
36
19
8
41
30
11
48
4
9
16
40
32
5
21
43
23
37
44
47
39
45
42
35
27
15
7
14
31
13
25

> <PUBCHEM_MMFF94_PARTIAL_CHARGES>
39
1 -0.18
10 -0.81
11 -0.8
13 0.14
15 0.48
16 0.33
17 0.42
18 -0.12
19 0.49
2 -0.68
20 -0.06
21 -0.14
22 0.49
23 0.05
24 0.03
25 0.03
27 0.18
28 0.27
29 0.27
3 -0.68
30 0.08
31 0.62
32 -0.15
33 -0.15
4 -0.57
42 0.4
43 0.4
5 -0.53
50 0.45
51 0.45
52 0.15
53 0.15
54 0.37
55 0.37
56 0.45
6 -0.53
7 -0.57
8 -0.53
9 -0.57

> <PUBCHEM_EFFECTIVE_ROTOR_COUNT>
2.6

> <PUBCHEM_PHARMACOPHORE_FEATURES>
17
1 10 cation
1 11 donor
1 2 acceptor
1 2 donor
1 24 anion
1 3 acceptor
1 3 donor
1 4 acceptor
1 5 donor
1 6 donor
1 7 acceptor
1 8 donor
1 9 acceptor
6 12 13 14 15 18 19 rings
6 12 15 16 20 22 24 rings
6 13 17 18 21 23 25 rings
6 21 25 27 30 32 33 rings

> <PUBCHEM_HEAVY_ATOM_COUNT>
33

> <PUBCHEM_ATOM_DEF_STEREO_COUNT>
0

> <PUBCHEM_ATOM_UDEF_STEREO_COUNT>
5

> <PUBCHEM_BOND_DEF_STEREO_COUNT>
0

> <PUBCHEM_BOND_UDEF_STEREO_COUNT>
0

> <PUBCHEM_ISOTOPIC_ATOM_COUNT>
0

> <PUBCHEM_COMPONENT_COUNT>
1

> <PUBCHEM_CACTVS_TAUTO_COUNT>
132

> <PUBCHEM_CONFORMER_ID>
03424FC000000002

> <PUBCHEM_MMFF94_ENERGY>
117.0213

> <PUBCHEM_FEATURE_SELFOVERLAP>
86.415

> <PUBCHEM_SHAPE_FINGERPRINT>
10165383 225 14404643029270852477
10369192 42 13684016636000737330
11007060 377 18188208823208935180
11135609 187 18045494472533414580
11578080 2 17984107561939842213
12166972 35 18194113243340913215
12236239 1 18271523195289482175
12422481 6 18265619780042091162
12596602 18 17918274277271659000
12633257 1 18200037239686334440
12714826 92 15357709586725521881
12788726 201 17775288309218119999
13140716 1 17829619705124753190
13224815 77 18407757023819169646
13544653 18 17967531255465554670
13583140 156 17750513979607307282
13782708 43 16298679390371729139
13965767 371 17839217058883336753
14068700 675 17773858965402625415
14294032 229 17203340975190266513
14341114 328 18202013117947911800
14790565 3 17972053689047576340
15163728 17 15839607820866587433
15361156 5 17750238006752865252
17349148 13 18409160039147549750
19377110 9 18272925051350907258
200 152 18338786905697854271
20511986 3 18341610404703849769
20739085 24 18260845790864892332
21033648 29 16805314535254946390
21033650 10 17201668686217551506
23559900 14 17168131373434973949
25147074 1 18343868839746017941
3633792 109 18410283693498588191
392239 28 17894915152681561714
4098825 35 18115010979841395255
460360 51 18261679147463608958
469060 322 18260546766045453960
5081480 168 17413610350072094446
5104073 3 18261100826091332136
57527295 17 16951942065099885831
581034 39 17489593371845394119
7808743 9 17346331349279513713
9849439 229 16483060674115619713

> <PUBCHEM_SHAPE_MULTIPOLES>
624.08
11.62
2.89
2.25
6.23
0.03
-0.82
2.81
-1.73
1.29
0.02
-3.87
-0.51
-3.13

> <PUBCHEM_SHAPE_SELFOVERLAP>
1373.172

> <PUBCHEM_SHAPE_VOLUME>
333.9

> <PUBCHEM_COORDINATE_TYPE>
2
5
10

$$$$
