15388650
  -OEChem-09252021193D

 55 57  0     1  0  0  0  0  0999 V2000
    2.2290    1.1934   -1.8744 O   0  0  0  0  0  0  0  0  0  0  0  0
    3.1029   -2.8912   -2.3192 O   0  0  0  0  0  0  0  0  0  0  0  0
    1.2445   -1.9454   -1.3986 O   0  0  0  0  0  0  0  0  0  0  0  0
   -0.4731    2.3596   -2.3870 O   0  0  0  0  0  0  0  0  0  0  0  0
   -1.5031    3.4289   -0.6739 O   0  0  0  0  0  0  0  0  0  0  0  0
    2.4654   -0.3496    1.3454 N   0  0  1  0  0  0  0  0  0  0  0  0
    2.6836   -0.1284   -0.0354 N   0  0  0  0  0  0  0  0  0  0  0  0
    0.2441    1.5357    0.7529 N   0  0  0  0  0  0  0  0  0  0  0  0
    3.4427   -1.1210   -0.8074 C   0  0  1  0  0  0  0  0  0  0  0  0
    1.4893    2.0672    0.2097 C   0  0  1  0  0  0  0  0  0  0  0  0
    2.4910   -1.7729    1.6869 C   0  0  0  0  0  0  0  0  0  0  0  0
    3.3694    0.4543    2.1707 C   0  0  0  0  0  0  0  0  0  0  0  0
    4.4229   -1.9306    0.0365 C   0  0  0  0  0  0  0  0  0  0  0  0
    2.4389    2.6702    1.2507 C   0  0  0  0  0  0  0  0  0  0  0  0
    3.8087   -2.4602    1.3334 C   0  0  0  0  0  0  0  0  0  0  0  0
    2.7360    1.8100    2.4785 C   0  0  0  0  0  0  0  0  0  0  0  0
    2.1555    1.0034   -0.6543 C   0  0  0  0  0  0  0  0  0  0  0  0
   -0.6661    1.1701   -0.3192 C   0  0  1  0  0  0  0  0  0  0  0  0
    2.4590   -2.0063   -1.5195 C   0  0  0  0  0  0  0  0  0  0  0  0
   -1.9583    0.6032    0.2853 C   0  0  0  0  0  0  0  0  0  0  0  0
   -3.0025    0.1554   -0.7494 C   0  0  0  0  0  0  0  0  0  0  0  0
   -0.9423    2.4334   -1.1154 C   0  0  0  0  0  0  0  0  0  0  0  0
   -4.2406   -0.4722   -0.1577 C   0  0  0  0  0  0  0  0  0  0  0  0
   -4.2747   -1.8423    0.0516 C   0  0  0  0  0  0  0  0  0  0  0  0
   -5.3221    0.3320    0.1668 C   0  0  0  0  0  0  0  0  0  0  0  0
   -5.4190   -2.4226    0.5988 C   0  0  0  0  0  0  0  0  0  0  0  0
   -6.4664   -0.2485    0.7141 C   0  0  0  0  0  0  0  0  0  0  0  0
   -6.5147   -1.6257    0.9301 C   0  0  0  0  0  0  0  0  0  0  0  0
    3.9954   -0.5801   -1.5863 H   0  0  0  0  0  0  0  0  0  0  0  0
    1.2897    2.9162   -0.4563 H   0  0  0  0  0  0  0  0  0  0  0  0
    2.2751   -1.9148    2.7534 H   0  0  0  0  0  0  0  0  0  0  0  0
    1.6640   -2.2778    1.1728 H   0  0  0  0  0  0  0  0  0  0  0  0
    4.3529    0.5849    1.7022 H   0  0  0  0  0  0  0  0  0  0  0  0
    3.5500   -0.0347    3.1367 H   0  0  0  0  0  0  0  0  0  0  0  0
    4.8725   -2.7569   -0.5259 H   0  0  0  0  0  0  0  0  0  0  0  0
    5.2579   -1.2708    0.3084 H   0  0  0  0  0  0  0  0  0  0  0  0
    2.0107    3.6166    1.6067 H   0  0  0  0  0  0  0  0  0  0  0  0
    3.3904    2.9243    0.7654 H   0  0  0  0  0  0  0  0  0  0  0  0
    3.6306   -3.5385    1.2423 H   0  0  0  0  0  0  0  0  0  0  0  0
    4.5327   -2.3345    2.1479 H   0  0  0  0  0  0  0  0  0  0  0  0
    1.8174    1.6652    3.0612 H   0  0  0  0  0  0  0  0  0  0  0  0
    3.4190    2.3681    3.1316 H   0  0  0  0  0  0  0  0  0  0  0  0
    0.4347    0.7265    1.3426 H   0  0  0  0  0  0  0  0  0  0  0  0
   -0.2513    0.3997   -0.9783 H   0  0  0  0  0  0  0  0  0  0  0  0
   -1.7074   -0.2565    0.9222 H   0  0  0  0  0  0  0  0  0  0  0  0
   -2.4212    1.3478    0.9481 H   0  0  0  0  0  0  0  0  0  0  0  0
   -2.5400   -0.5573   -1.4455 H   0  0  0  0  0  0  0  0  0  0  0  0
   -3.3021    1.0094   -1.3705 H   0  0  0  0  0  0  0  0  0  0  0  0
    2.4772   -3.4805   -2.7918 H   0  0  0  0  0  0  0  0  0  0  0  0
   -0.6451    3.1847   -2.8887 H   0  0  0  0  0  0  0  0  0  0  0  0
   -3.4255   -2.4707   -0.2009 H   0  0  0  0  0  0  0  0  0  0  0  0
   -5.2928    1.4057    0.0045 H   0  0  0  0  0  0  0  0  0  0  0  0
   -5.4566   -3.4947    0.7676 H   0  0  0  0  0  0  0  0  0  0  0  0
   -7.3195    0.3720    0.9728 H   0  0  0  0  0  0  0  0  0  0  0  0
   -7.4056   -2.0775    1.3565 H   0  0  0  0  0  0  0  0  0  0  0  0
  1 17  2  0  0  0  0
  2 19  1  0  0  0  0
  2 49  1  0  0  0  0
  3 19  2  0  0  0  0
  4 22  1  0  0  0  0
  4 50  1  0  0  0  0
  5 22  2  0  0  0  0
  6  7  1  0  0  0  0
  6 11  1  0  0  0  0
  6 12  1  0  0  0  0
  7  9  1  0  0  0  0
  7 17  1  0  0  0  0
  8 10  1  0  0  0  0
  8 18  1  0  0  0  0
  8 43  1  0  0  0  0
  9 13  1  0  0  0  0
  9 19  1  0  0  0  0
  9 29  1  0  0  0  0
 10 14  1  0  0  0  0
 10 17  1  0  0  0  0
 10 30  1  0  0  0  0
 11 15  1  0  0  0  0
 11 31  1  0  0  0  0
 11 32  1  0  0  0  0
 12 16  1  0  0  0  0
 12 33  1  0  0  0  0
 12 34  1  0  0  0  0
 13 15  1  0  0  0  0
 13 35  1  0  0  0  0
 13 36  1  0  0  0  0
 14 16  1  0  0  0  0
 14 37  1  0  0  0  0
 14 38  1  0  0  0  0
 15 39  1  0  0  0  0
 15 40  1  0  0  0  0
 16 41  1  0  0  0  0
 16 42  1  0  0  0  0
 18 20  1  0  0  0  0
 18 22  1  0  0  0  0
 18 44  1  0  0  0  0
 20 21  1  0  0  0  0
 20 45  1  0  0  0  0
 20 46  1  0  0  0  0
 21 23  1  0  0  0  0
 21 47  1  0  0  0  0
 21 48  1  0  0  0  0
 23 24  2  0  0  0  0
 23 25  1  0  0  0  0
 24 26  1  0  0  0  0
 24 51  1  0  0  0  0
 25 27  2  0  0  0  0
 25 52  1  0  0  0  0
 26 28  2  0  0  0  0
 26 53  1  0  0  0  0
 27 28  1  0  0  0  0
 27 54  1  0  0  0  0
 28 55  1  0  0  0  0
M  END
> <PUBCHEM_COMPOUND_CID>
15388650

> <PUBCHEM_CONFORMER_RMSD>
1

> <PUBCHEM_CONFORMER_DIVERSEORDER>
1
7
81
3
78
25
36
49
52
69
110
79
83
94
64
39
54
88
66
75
26
91
87
10
73
33
106
59
51
104
45
98
44
53
20
18
38
89
80
70
6
93
9
17
50
46
31
8
11
84
67
74
35
100
62
77
2
95
5
71
15
24
47
85
57
30
72
90
23
14
55
27
109
48
86
92
43
101
65
58
40
76
108
68
99
102
63
107
61
34
42
41
82
21
32
4
60
56
105
28
12
37
97
19
22
96
29
16
13
103

> <PUBCHEM_MMFF94_PARTIAL_CHARGES>
31
1 -0.57
10 0.33
11 0.27
12 0.27
17 0.57
18 0.33
19 0.66
2 -0.65
21 0.14
22 0.66
23 -0.14
24 -0.15
25 -0.15
26 -0.15
27 -0.15
28 -0.15
3 -0.57
4 -0.65
43 0.36
49 0.5
5 -0.57
50 0.5
51 0.15
52 0.15
53 0.15
54 0.15
55 0.15
6 -0.55
7 -0.35
8 -0.9
9 0.36

> <PUBCHEM_EFFECTIVE_ROTOR_COUNT>
8.6

> <PUBCHEM_PHARMACOPHORE_FEATURES>
12
1 1 acceptor
1 2 acceptor
1 3 acceptor
1 4 acceptor
1 5 acceptor
1 8 cation
1 8 donor
3 2 3 19 anion
3 4 5 22 anion
6 23 24 25 26 27 28 rings
6 6 7 9 11 13 15 rings
7 6 7 10 12 14 16 17 rings

> <PUBCHEM_HEAVY_ATOM_COUNT>
28

> <PUBCHEM_ATOM_DEF_STEREO_COUNT>
0

> <PUBCHEM_ATOM_UDEF_STEREO_COUNT>
3

> <PUBCHEM_BOND_DEF_STEREO_COUNT>
0

> <PUBCHEM_BOND_UDEF_STEREO_COUNT>
0

> <PUBCHEM_ISOTOPIC_ATOM_COUNT>
0

> <PUBCHEM_COMPONENT_COUNT>
1

> <PUBCHEM_CACTVS_TAUTO_COUNT>
1

> <PUBCHEM_CONFORMER_ID>
00EACFEA00000001

> <PUBCHEM_MMFF94_ENERGY>
61.3611

> <PUBCHEM_FEATURE_SELFOVERLAP>
61.031

> <PUBCHEM_SHAPE_FINGERPRINT>
10928967 22 17894627050723703675
11497681 19 15867130792086412074
11763715 3 16299490696482766276
12035758 1 17845350234144231330
12166972 35 15358242819446827400
12422481 6 18201709653018259159
12633257 1 17346305016660850631
13533116 47 17988652913001669947
14211702 104 18118685663851065083
14251740 57 18410013281919963811
14429115 67 18411419531643242713
14528608 73 10591775290014736705
14848178 96 10303822003340652403
14863182 85 18265053720274209556
15664445 248 18042698371118733380
17909252 39 18333730191465713011
1813 80 17676202498860849229
18365409 1 11390808965453436726
1979834 28 18200597011717455859
20626108 58 18042685001507142612
20775438 99 11530769270738699321
20775530 9 17826777153882158411
21421861 104 17703791435359694049
23559900 14 18342747333833455253
239999 70 18409730702798775226
25222932 49 17897156034409273283
3004659 81 17676486159748748035
3421961 26 18272656757222632737
34797466 226 12324241677098941035
44317340 157 10809332335903791107
474 4 11383837065226155101
5104073 3 18271815648793244163
66674814 147 16082495428221275554
6823239 73 18413111645109062483
960060 61 17458070378188221447

> <PUBCHEM_SHAPE_MULTIPOLES>
531.94
12.41
3.61
2.06
23.75
0.5
0.08
-8.96
-4.27
-2
0.68
-2.55
0.11
2.01

> <PUBCHEM_SHAPE_SELFOVERLAP>
1114.617

> <PUBCHEM_SHAPE_VOLUME>
293.9

> <PUBCHEM_COORDINATE_TYPE>
2
5
10

$$$$
