151170
  -OEChem-09252021193D

 50 52  0     0  0  0  0  0  0999 V2000
   -3.1464    0.1344   -0.1574 O   0  0  0  0  0  0  0  0  0  0  0  0
    5.9217   -0.2770    1.4958 O   0  0  0  0  0  0  0  0  0  0  0  0
    4.1887    0.9110    2.3798 O   0  0  0  0  0  0  0  0  0  0  0  0
   -3.2098   -2.5035    0.7181 O   0  0  0  0  0  0  0  0  0  0  0  0
    1.5606    0.6416   -3.2820 N   0  0  0  0  0  0  0  0  0  0  0  0
    1.7332   -0.0987   -0.7455 C   0  0  0  0  0  0  0  0  0  0  0  0
    2.9481   -1.0581   -0.6028 C   0  0  0  0  0  0  0  0  0  0  0  0
    1.9906    1.1469    0.1478 C   0  0  0  0  0  0  0  0  0  0  0  0
    4.5277    0.8640   -0.0155 C   0  0  0  0  0  0  0  0  0  0  0  0
    4.3087   -0.3953   -0.8484 C   0  0  0  0  0  0  0  0  0  0  0  0
    3.3452    1.8242   -0.0908 C   0  0  0  0  0  0  0  0  0  0  0  0
    0.3905   -0.7477   -0.3482 C   0  0  0  0  0  0  0  0  0  0  0  0
   -3.2180    1.3178    0.6280 C   0  0  0  0  0  0  0  0  0  0  0  0
   -4.4354    1.2485    1.5370 C   0  0  0  0  0  0  0  0  0  0  0  0
   -3.5161    2.5214   -0.2532 C   0  0  0  0  0  0  0  0  0  0  0  0
   -5.6088    1.6305    0.6358 C   0  0  0  0  0  0  0  0  0  0  0  0
   -5.0141    2.4216   -0.5296 C   0  0  0  0  0  0  0  0  0  0  0  0
   -0.7856   -0.0086   -0.4317 C   0  0  0  0  0  0  0  0  0  0  0  0
    4.8305    0.5231    1.4150 C   0  0  0  0  0  0  0  0  0  0  0  0
    1.6361    0.3172   -2.1707 C   0  0  0  0  0  0  0  0  0  0  0  0
   -1.9991   -0.5956   -0.0738 C   0  0  0  0  0  0  0  0  0  0  0  0
    0.3646   -2.0682    0.0898 C   0  0  0  0  0  0  0  0  0  0  0  0
   -2.0309   -1.9189    0.3660 C   0  0  0  0  0  0  0  0  0  0  0  0
   -0.8490   -2.6552    0.4478 C   0  0  0  0  0  0  0  0  0  0  0  0
   -3.9328   -3.1756   -0.3113 C   0  0  0  0  0  0  0  0  0  0  0  0
    2.8556   -1.9090   -1.2915 H   0  0  0  0  0  0  0  0  0  0  0  0
    2.9819   -1.4690    0.4152 H   0  0  0  0  0  0  0  0  0  0  0  0
    1.9114    0.8561    1.2034 H   0  0  0  0  0  0  0  0  0  0  0  0
    1.2145    1.9080   -0.0083 H   0  0  0  0  0  0  0  0  0  0  0  0
    5.4128    1.3948   -0.3909 H   0  0  0  0  0  0  0  0  0  0  0  0
    5.0986   -1.1351   -0.6732 H   0  0  0  0  0  0  0  0  0  0  0  0
    4.3854   -0.1278   -1.9101 H   0  0  0  0  0  0  0  0  0  0  0  0
    3.3362    2.2901   -1.0846 H   0  0  0  0  0  0  0  0  0  0  0  0
    3.4647    2.6488    0.6231 H   0  0  0  0  0  0  0  0  0  0  0  0
   -2.3090    1.4734    1.2222 H   0  0  0  0  0  0  0  0  0  0  0  0
   -4.3446    1.9839    2.3452 H   0  0  0  0  0  0  0  0  0  0  0  0
   -4.5830    0.2593    1.9812 H   0  0  0  0  0  0  0  0  0  0  0  0
   -2.9419    2.5239   -1.1846 H   0  0  0  0  0  0  0  0  0  0  0  0
   -3.3055    3.4495    0.2912 H   0  0  0  0  0  0  0  0  0  0  0  0
   -6.3545    2.2147    1.1847 H   0  0  0  0  0  0  0  0  0  0  0  0
   -6.1104    0.7321    0.2580 H   0  0  0  0  0  0  0  0  0  0  0  0
   -5.1927    1.8862   -1.4695 H   0  0  0  0  0  0  0  0  0  0  0  0
   -5.4696    3.4122   -0.6257 H   0  0  0  0  0  0  0  0  0  0  0  0
   -0.7729    1.0179   -0.7880 H   0  0  0  0  0  0  0  0  0  0  0  0
    1.2467   -2.6927    0.1649 H   0  0  0  0  0  0  0  0  0  0  0  0
   -0.8674   -3.6871    0.7882 H   0  0  0  0  0  0  0  0  0  0  0  0
    6.1361   -0.5114    2.4239 H   0  0  0  0  0  0  0  0  0  0  0  0
   -3.3409   -4.0007   -0.7199 H   0  0  0  0  0  0  0  0  0  0  0  0
   -4.2060   -2.4774   -1.1089 H   0  0  0  0  0  0  0  0  0  0  0  0
   -4.8488   -3.5843    0.1242 H   0  0  0  0  0  0  0  0  0  0  0  0
  1 13  1  0  0  0  0
  1 21  1  0  0  0  0
  2 19  1  0  0  0  0
  2 47  1  0  0  0  0
  3 19  2  0  0  0  0
  4 23  1  0  0  0  0
  4 25  1  0  0  0  0
  5 20  3  0  0  0  0
  6  7  1  0  0  0  0
  6  8  1  0  0  0  0
  6 12  1  0  0  0  0
  6 20  1  0  0  0  0
  7 10  1  0  0  0  0
  7 26  1  0  0  0  0
  7 27  1  0  0  0  0
  8 11  1  0  0  0  0
  8 28  1  0  0  0  0
  8 29  1  0  0  0  0
  9 10  1  0  0  0  0
  9 11  1  0  0  0  0
  9 19  1  0  0  0  0
  9 30  1  0  0  0  0
 10 31  1  0  0  0  0
 10 32  1  0  0  0  0
 11 33  1  0  0  0  0
 11 34  1  0  0  0  0
 12 18  2  0  0  0  0
 12 22  1  0  0  0  0
 13 14  1  0  0  0  0
 13 15  1  0  0  0  0
 13 35  1  0  0  0  0
 14 16  1  0  0  0  0
 14 36  1  0  0  0  0
 14 37  1  0  0  0  0
 15 17  1  0  0  0  0
 15 38  1  0  0  0  0
 15 39  1  0  0  0  0
 16 17  1  0  0  0  0
 16 40  1  0  0  0  0
 16 41  1  0  0  0  0
 17 42  1  0  0  0  0
 17 43  1  0  0  0  0
 18 21  1  0  0  0  0
 18 44  1  0  0  0  0
 21 23  2  0  0  0  0
 22 24  2  0  0  0  0
 22 45  1  0  0  0  0
 23 24  1  0  0  0  0
 24 46  1  0  0  0  0
 25 48  1  0  0  0  0
 25 49  1  0  0  0  0
 25 50  1  0  0  0  0
M  END
> <PUBCHEM_COMPOUND_CID>
151170

> <PUBCHEM_CONFORMER_RMSD>
0.8

> <PUBCHEM_CONFORMER_DIVERSEORDER>
1
134
43
136
139
123
51
57
63
24
112
31
91
115
38
54
111
21
113
125
72
96
69
140
135
127
118
23
109
143
104
130
81
62
52
114
101
141
119
99
56
9
137
121
70
131
67
15
68
50
60
36
74
64
129
108
42
34
102
44
106
47
49
138
93
132
53
79
83
41
39
71
40
19
20
76
55
105
126
33
32
100
92
28
98
65
27
88
128
26
6
84
124
107
82
95
35
122
103
18
5
110
133
116
48
94
120
37
11
58
45
142
78
16
73
7
117
8
86
87
25
30
85
17
75
90
97
14
80
89
59
66
12
4
77
13
3
46
29
61
22
2
10

> <PUBCHEM_MMFF94_PARTIAL_CHARGES>
21
1 -0.36
12 -0.14
13 0.28
18 -0.15
19 0.66
2 -0.65
20 0.36
21 0.08
22 -0.15
23 0.08
24 -0.15
25 0.28
3 -0.57
4 -0.36
44 0.15
45 0.15
46 0.15
47 0.5
5 -0.56
6 0.34
9 0.06

> <PUBCHEM_EFFECTIVE_ROTOR_COUNT>
7.2

> <PUBCHEM_PHARMACOPHORE_FEATURES>
9
1 1 acceptor
1 2 acceptor
1 3 acceptor
1 4 acceptor
1 5 acceptor
3 2 3 19 anion
5 13 14 15 16 17 rings
6 12 18 21 22 23 24 rings
6 6 7 8 9 10 11 rings

> <PUBCHEM_HEAVY_ATOM_COUNT>
25

> <PUBCHEM_ATOM_DEF_STEREO_COUNT>
0

> <PUBCHEM_ATOM_UDEF_STEREO_COUNT>
0

> <PUBCHEM_BOND_DEF_STEREO_COUNT>
0

> <PUBCHEM_BOND_UDEF_STEREO_COUNT>
0

> <PUBCHEM_ISOTOPIC_ATOM_COUNT>
0

> <PUBCHEM_COMPONENT_COUNT>
1

> <PUBCHEM_CACTVS_TAUTO_COUNT>
1

> <PUBCHEM_CONFORMER_ID>
00024E8200000001

> <PUBCHEM_MMFF94_ENERGY>
79.3571

> <PUBCHEM_FEATURE_SELFOVERLAP>
45.734

> <PUBCHEM_SHAPE_FINGERPRINT>
10 15 18260275156687652857
10319926 262 18413385445686188130
10646746 165 18342466945092956862
10692045 39 18194397801761738370
11049842 53 18117305625595275926
11725454 13 17775273954936029516
12107183 9 18262226717413469514
12166972 35 17533205604104301383
12403259 118 18271518814512471752
12403259 415 17775012340220249024
12403260 363 18265891547923480679
12422481 6 17823684279602572322
12553582 1 16225763034749943918
12596602 18 17095251323378334760
12633257 1 18335413578333524804
12788726 201 17463719806244555723
12892183 10 18264760151128132994
13103583 49 15864361194482817965
13583140 156 17703784860171055790
13911987 19 15769491045050685552
13965767 371 17896593999125110365
14178342 30 18260551142706857763
14251764 30 13840261455939087312
14251764 38 18272083958846379065
14466204 15 18410288112423784848
15842332 3 17387993094364362190
17349148 13 17969498397410646007
17980427 23 18262237832330025708
1813 80 16805039597819977142
20567600 254 18339070493962283661
21033648 29 18263359183846032461
21065198 48 18188206628206002624
212916 134 18409725136457758584
2132832 1 18043530723385588229
21475661 188 18059280055101818648
22149856 69 18121247337138639881
22182313 1 17631754740759079599
23227448 37 18412548717263402477
23557571 272 18057904586960341519
23558518 356 17897456213846757627
23559900 14 18272381828324857270
25147074 1 17677907887980456086
2838139 119 17346306068922920968
3459 39 18265038168255951817
495365 180 17846496994237530414
5104073 3 18261670480399116256
5385378 56 18193563263866965899
53917941 68 18338505371087402063
58807428 26 18113900433477726074
7226269 152 18201434753615549144
9862522 239 17677322810809290837
9981440 41 18408603643873716515

> <PUBCHEM_SHAPE_MULTIPOLES>
486.03
12.03
3
1.73
0.69
1.63
0.7
-6.26
-4.51
-4.74
-0.23
2.04
-0.56
0.35

> <PUBCHEM_SHAPE_SELFOVERLAP>
1030.578

> <PUBCHEM_SHAPE_VOLUME>
268.4

> <PUBCHEM_COORDINATE_TYPE>
2
5
10

$$$$
