6101856
  -OEChem-09252021193D

 48 50  0     1  0  0  0  0  0999 V2000
    7.0578    1.2932    0.2732 F   0  0  0  0  0  0  0  0  0  0  0  0
    5.5250    2.4941   -0.6821 F   0  0  0  0  0  0  0  0  0  0  0  0
    5.3126    1.9253    1.4060 F   0  0  0  0  0  0  0  0  0  0  0  0
   -1.4308   -1.5735    1.5682 N   0  0  0  0  0  0  0  0  0  0  0  0
   -2.8953   -1.5302    1.4237 C   0  0  2  0  0  0  0  0  0  0  0  0
   -0.7889   -1.2136    0.3174 C   0  0  0  0  0  0  0  0  0  0  0  0
   -3.3863   -0.1717    1.0281 C   0  0  0  0  0  0  0  0  0  0  0  0
    0.7306   -1.2710    0.4650 C   0  0  0  0  0  0  0  0  0  0  0  0
    1.4260   -0.9149   -0.8514 C   0  0  0  0  0  0  0  0  0  0  0  0
   -4.0733    0.0500   -0.1766 C   0  0  0  0  0  0  0  0  0  0  0  0
   -3.5292   -2.0269    2.7330 C   0  0  0  0  0  0  0  0  0  0  0  0
   -4.5116    1.3581   -0.4924 C   0  0  0  0  0  0  0  0  0  0  0  0
    2.9268   -0.9309   -0.7116 C   0  0  0  0  0  0  0  0  0  0  0  0
   -3.1347    0.8810    1.9086 C   0  0  0  0  0  0  0  0  0  0  0  0
   -4.3350   -0.9975   -1.0745 C   0  0  0  0  0  0  0  0  0  0  0  0
   -4.2501    2.4058    0.4057 C   0  0  0  0  0  0  0  0  0  0  0  0
   -3.5661    2.1672    1.5980 C   0  0  0  0  0  0  0  0  0  0  0  0
    3.5896    0.2296   -0.3409 C   0  0  0  0  0  0  0  0  0  0  0  0
   -5.1987    1.5801   -1.6969 C   0  0  0  0  0  0  0  0  0  0  0  0
    3.6207   -2.1069   -0.9548 C   0  0  0  0  0  0  0  0  0  0  0  0
    4.9783    0.2139   -0.2105 C   0  0  0  0  0  0  0  0  0  0  0  0
   -5.0189   -0.7588   -2.2670 C   0  0  0  0  0  0  0  0  0  0  0  0
   -5.4499    0.5276   -2.5776 C   0  0  0  0  0  0  0  0  0  0  0  0
    5.0093   -2.1226   -0.8244 C   0  0  0  0  0  0  0  0  0  0  0  0
    5.6881   -0.9623   -0.4523 C   0  0  0  0  0  0  0  0  0  0  0  0
    5.7042    1.4549    0.1860 C   0  0  0  0  0  0  0  0  0  0  0  0
   -3.1451   -2.3097    0.7056 H   0  0  0  0  0  0  0  0  0  0  0  0
   -1.0456   -0.1961    0.0032 H   0  0  0  0  0  0  0  0  0  0  0  0
   -1.0963   -1.9002   -0.4814 H   0  0  0  0  0  0  0  0  0  0  0  0
    1.0374   -2.2762    0.7831 H   0  0  0  0  0  0  0  0  0  0  0  0
    1.0511   -0.5788    1.2548 H   0  0  0  0  0  0  0  0  0  0  0  0
   -1.1401   -2.5086    1.8526 H   0  0  0  0  0  0  0  0  0  0  0  0
    1.1021    0.0765   -1.1941 H   0  0  0  0  0  0  0  0  0  0  0  0
    1.1225   -1.6154   -1.6401 H   0  0  0  0  0  0  0  0  0  0  0  0
   -4.6229   -2.0157    2.6618 H   0  0  0  0  0  0  0  0  0  0  0  0
   -3.2226   -3.0572    2.9484 H   0  0  0  0  0  0  0  0  0  0  0  0
   -3.2456   -1.4138    3.5958 H   0  0  0  0  0  0  0  0  0  0  0  0
   -2.5982    0.7262    2.8409 H   0  0  0  0  0  0  0  0  0  0  0  0
   -4.0360   -2.0260   -0.9170 H   0  0  0  0  0  0  0  0  0  0  0  0
   -4.5775    3.4193    0.1832 H   0  0  0  0  0  0  0  0  0  0  0  0
   -3.3688    2.9868    2.2829 H   0  0  0  0  0  0  0  0  0  0  0  0
    3.0366    1.1458   -0.1507 H   0  0  0  0  0  0  0  0  0  0  0  0
   -5.5449    2.5774   -1.9602 H   0  0  0  0  0  0  0  0  0  0  0  0
    3.1010   -3.0163   -1.2430 H   0  0  0  0  0  0  0  0  0  0  0  0
   -5.2150   -1.5768   -2.9542 H   0  0  0  0  0  0  0  0  0  0  0  0
   -5.9821    0.7129   -3.5061 H   0  0  0  0  0  0  0  0  0  0  0  0
    5.5619   -3.0386   -1.0121 H   0  0  0  0  0  0  0  0  0  0  0  0
    6.7698   -0.9944   -0.3560 H   0  0  0  0  0  0  0  0  0  0  0  0
  1 26  1  0  0  0  0
  2 26  1  0  0  0  0
  3 26  1  0  0  0  0
  4  5  1  0  0  0  0
  4  6  1  0  0  0  0
  4 32  1  0  0  0  0
  5  7  1  0  0  0  0
  5 11  1  0  0  0  0
  5 27  1  0  0  0  0
  6  8  1  0  0  0  0
  6 28  1  0  0  0  0
  6 29  1  0  0  0  0
  7 10  1  0  0  0  0
  7 14  2  0  0  0  0
  8  9  1  0  0  0  0
  8 30  1  0  0  0  0
  8 31  1  0  0  0  0
  9 13  1  0  0  0  0
  9 33  1  0  0  0  0
  9 34  1  0  0  0  0
 10 12  1  0  0  0  0
 10 15  2  0  0  0  0
 11 35  1  0  0  0  0
 11 36  1  0  0  0  0
 11 37  1  0  0  0  0
 12 16  1  0  0  0  0
 12 19  2  0  0  0  0
 13 18  2  0  0  0  0
 13 20  1  0  0  0  0
 14 17  1  0  0  0  0
 14 38  1  0  0  0  0
 15 22  1  0  0  0  0
 15 39  1  0  0  0  0
 16 17  2  0  0  0  0
 16 40  1  0  0  0  0
 17 41  1  0  0  0  0
 18 21  1  0  0  0  0
 18 42  1  0  0  0  0
 19 23  1  0  0  0  0
 19 43  1  0  0  0  0
 20 24  2  0  0  0  0
 20 44  1  0  0  0  0
 21 25  2  0  0  0  0
 21 26  1  0  0  0  0
 22 23  2  0  0  0  0
 22 45  1  0  0  0  0
 23 46  1  0  0  0  0
 24 25  1  0  0  0  0
 24 47  1  0  0  0  0
 25 48  1  0  0  0  0
M  END
> <PUBCHEM_COMPOUND_CID>
6101856

> <PUBCHEM_CONFORMER_RMSD>
0.8

> <PUBCHEM_CONFORMER_DIVERSEORDER>
19
67
220
9
23
63
210
209
150
52
130
95
195
169
138
29
120
7
37
253
221
237
219
218
58
124
179
190
121
26
24
145
102
103
71
187
78
77
18
254
22
260
257
64
200
214
177
75
42
146
30
158
171
201
66
59
126
256
98
76
181
62
239
235
131
127
43
141
65
46
250
73
81
70
40
143
217
166
241
41
31
108
54
263
255
79
123
13
20
180
86
252
80
82
153
104
119
173
115
223
49
168
11
205
142
161
39
60
101
94
61
154
176
8
6
163
32
238
38
112
25
225
198
133
114
189
184
151
208
122
69
117
12
140
88
137
229
216
132
136
236
5
211
249
207
183
27
118
116
47
202
233
15
110
36
149
156
159
2
259
247
17
204
51
134
113
1
227
72
199
148
174
97
147
258
21
128
105
84
28
144
224
261
68
109
48
188
206
45
96
170
242
178
50
152
53
4
164
167
228
106
251
99
157
3
107
234
197
264
10
90
226
160
14
215
182
92
175
57
245
56
244
111
230
162
83
262
265
231
55
16
186
44
192
213
34
196
93
212
135
246
91
191
165
232
155
125
85
87
203
100
185
222
194
267
172
193
33
129
240
35
139
243
89
266
74
248

> <PUBCHEM_MMFF94_PARTIAL_CHARGES>
34
1 -0.34
13 -0.14
14 -0.15
15 -0.15
16 -0.15
17 -0.15
18 -0.15
19 -0.15
2 -0.34
20 -0.15
21 -0.14
22 -0.15
23 -0.15
24 -0.15
25 -0.15
26 1.16
3 -0.34
32 0.36
38 0.15
39 0.15
4 -0.9
40 0.15
41 0.15
42 0.15
43 0.15
44 0.15
45 0.15
46 0.15
47 0.15
48 0.15
5 0.41
6 0.27
7 -0.14
9 0.14

> <PUBCHEM_EFFECTIVE_ROTOR_COUNT>
7

> <PUBCHEM_PHARMACOPHORE_FEATURES>
5
1 4 cation
1 4 donor
6 10 12 15 19 22 23 rings
6 13 18 20 21 24 25 rings
6 7 10 12 14 16 17 rings

> <PUBCHEM_HEAVY_ATOM_COUNT>
26

> <PUBCHEM_ATOM_DEF_STEREO_COUNT>
0

> <PUBCHEM_ATOM_UDEF_STEREO_COUNT>
1

> <PUBCHEM_BOND_DEF_STEREO_COUNT>
0

> <PUBCHEM_BOND_UDEF_STEREO_COUNT>
0

> <PUBCHEM_ISOTOPIC_ATOM_COUNT>
0

> <PUBCHEM_COMPONENT_COUNT>
1

> <PUBCHEM_CACTVS_TAUTO_COUNT>
1

> <PUBCHEM_CONFORMER_ID>
005D1B6000000013

> <PUBCHEM_MMFF94_ENERGY>
60.5664

> <PUBCHEM_FEATURE_SELFOVERLAP>
25.398

> <PUBCHEM_SHAPE_FINGERPRINT>
105312 117 17458061535056534115
10595046 47 17988639675089687014
10928967 22 10735875041087152324
11036077 4 12324244958311699009
11089746 13 18339642248730576086
11443803 9 15936671724383630879
12422481 6 14418121890676151890
12616971 3 17346334652025240618
12895837 130 18059864922278950817
13103583 49 12757156761815086015
13782708 43 11671790338936417844
13941219 33 8358260358551187495
14251758 9 16081365211803376834
14528608 73 17847062190495452302
15183329 4 18131348579530626422
16110190 28 11674878862212996877
17780758 139 11891330954687537927
20101258 96 12895348885575211851
21033648 144 18261114045468146311
21033648 29 17168147784937638879
21315763 191 12396301461021459540
21403212 168 11675144940517948055
21599406 157 15913342281664215588
22950370 63 10881409737640278846
23559900 14 17968672510181901206
2838139 119 18339925896321999776
312425 83 17629769976505682941
32027 91 17970067743209058178
329604 57 16415187979829843639
3383291 50 17167865266832377735
4015057 19 18344148094113834760
4169191 19 18262528095501303404
484985 159 11386369283744987481
497634 4 16128662959524742163
508706 21 18187083927543900077
5104073 3 18187657881535733522
6697151 62 18195243309572715782
7237137 82 16487248881171853303
9981440 41 16298661686706276137
999808 66 9150904884080160968

> <PUBCHEM_SHAPE_MULTIPOLES>
508.27
18.17
2.61
2.22
21.69
0.79
0.16
7.4
-5.34
0.99
0.71
-4.69
-0.48
1.66

> <PUBCHEM_SHAPE_SELFOVERLAP>
1095.103

> <PUBCHEM_SHAPE_VOLUME>
282.3

> <PUBCHEM_COORDINATE_TYPE>
2
5
10

$$$$
