3033621
  -OEChem-09252021193D

 38 40  0     1  0  0  0  0  0999 V2000
   -0.4956   -4.8560    0.8182 Cl  0  0  0  0  0  0  0  0  0  0  0  0
   -2.9415    1.7686    1.5270 F   0  0  0  0  0  0  0  0  0  0  0  0
    1.0529    2.5404    2.8418 O   0  0  0  0  0  0  0  0  0  0  0  0
    2.4820    2.6740    0.6615 O   0  0  0  0  0  0  0  0  0  0  0  0
    2.2520    0.4193    0.1408 N   0  0  0  0  0  0  0  0  0  0  0  0
   -0.3878    1.3810    1.2737 N   0  0  0  0  0  0  0  0  0  0  0  0
    1.2895    1.8927   -3.1300 N   0  0  0  0  0  0  0  0  0  0  0  0
    1.5503   -0.8272    0.2793 C   0  0  0  0  0  0  0  0  0  0  0  0
    0.1742   -0.9059    0.5735 C   0  0  0  0  0  0  0  0  0  0  0  0
    3.4123    0.4564   -0.7500 C   0  0  0  0  0  0  0  0  0  0  0  0
   -0.6983    0.3019    0.6392 C   0  0  0  0  0  0  0  0  0  0  0  0
    1.9323    1.5852    0.8515 C   0  0  0  0  0  0  0  0  0  0  0  0
    0.8948    1.4347    1.9551 C   0  0  1  0  0  0  0  0  0  0  0  0
    2.2485   -2.0379    0.1004 C   0  0  0  0  0  0  0  0  0  0  0  0
   -0.4475   -2.1545    0.7558 C   0  0  0  0  0  0  0  0  0  0  0  0
   -2.0060    0.2877   -0.0781 C   0  0  0  0  0  0  0  0  0  0  0  0
    3.0429    0.1664   -2.1998 C   0  0  0  0  0  0  0  0  0  0  0  0
    1.6202   -3.2752    0.2635 C   0  0  0  0  0  0  0  0  0  0  0  0
    0.2756   -3.3334    0.6030 C   0  0  0  0  0  0  0  0  0  0  0  0
   -3.0710    1.0335    0.4133 C   0  0  0  0  0  0  0  0  0  0  0  0
   -2.1446   -0.4725   -1.2332 C   0  0  0  0  0  0  0  0  0  0  0  0
   -4.2923    1.0186   -0.2605 C   0  0  0  0  0  0  0  0  0  0  0  0
   -3.3660   -0.4874   -1.9068 C   0  0  0  0  0  0  0  0  0  0  0  0
   -4.4397    0.2581   -1.4205 C   0  0  0  0  0  0  0  0  0  0  0  0
    2.0628    1.1316   -2.7188 C   0  0  0  0  0  0  0  0  0  0  0  0
    4.1856   -0.2272   -0.3846 H   0  0  0  0  0  0  0  0  0  0  0  0
    3.8805    1.4476   -0.7067 H   0  0  0  0  0  0  0  0  0  0  0  0
    1.0927    0.5440    2.5605 H   0  0  0  0  0  0  0  0  0  0  0  0
    3.3092   -2.0660   -0.1294 H   0  0  0  0  0  0  0  0  0  0  0  0
   -1.5017   -2.2112    1.0207 H   0  0  0  0  0  0  0  0  0  0  0  0
    3.9525    0.2187   -2.8098 H   0  0  0  0  0  0  0  0  0  0  0  0
    2.6501   -0.8474   -2.3253 H   0  0  0  0  0  0  0  0  0  0  0  0
    2.2019   -4.1844    0.1334 H   0  0  0  0  0  0  0  0  0  0  0  0
   -1.3210   -1.0371   -1.6605 H   0  0  0  0  0  0  0  0  0  0  0  0
    0.6963    3.3208    2.3842 H   0  0  0  0  0  0  0  0  0  0  0  0
   -5.1280    1.5997    0.1180 H   0  0  0  0  0  0  0  0  0  0  0  0
   -3.4788   -1.0730   -2.8146 H   0  0  0  0  0  0  0  0  0  0  0  0
   -5.3902    0.2482   -1.9460 H   0  0  0  0  0  0  0  0  0  0  0  0
  1 19  1  0  0  0  0
  2 20  1  0  0  0  0
  3 13  1  0  0  0  0
  3 35  1  0  0  0  0
  4 12  2  0  0  0  0
  5  8  1  0  0  0  0
  5 10  1  0  0  0  0
  5 12  1  0  0  0  0
  6 11  2  0  0  0  0
  6 13  1  0  0  0  0
  7 25  3  0  0  0  0
  8  9  2  0  0  0  0
  8 14  1  0  0  0  0
  9 11  1  0  0  0  0
  9 15  1  0  0  0  0
 10 17  1  0  0  0  0
 10 26  1  0  0  0  0
 10 27  1  0  0  0  0
 11 16  1  0  0  0  0
 12 13  1  0  0  0  0
 13 28  1  0  0  0  0
 14 18  2  0  0  0  0
 14 29  1  0  0  0  0
 15 19  2  0  0  0  0
 15 30  1  0  0  0  0
 16 20  1  0  0  0  0
 16 21  2  0  0  0  0
 17 25  1  0  0  0  0
 17 31  1  0  0  0  0
 17 32  1  0  0  0  0
 18 19  1  0  0  0  0
 18 33  1  0  0  0  0
 20 22  2  0  0  0  0
 21 23  1  0  0  0  0
 21 34  1  0  0  0  0
 22 24  1  0  0  0  0
 22 36  1  0  0  0  0
 23 24  2  0  0  0  0
 23 37  1  0  0  0  0
 24 38  1  0  0  0  0
M  END
> <PUBCHEM_COMPOUND_CID>
3033621

> <PUBCHEM_CONFORMER_RMSD>
0.6

> <PUBCHEM_CONFORMER_DIVERSEORDER>
1
26
32
13
27
15
5
22
9
12
8
34
35
25
3
29
28
19
24
33
14
18
30
4
17
7
16
31
2
21
11
23
6
20
10

> <PUBCHEM_MMFF94_PARTIAL_CHARGES>
33
1 -0.18
10 0.3
11 0.28
12 0.57
13 0.59
14 -0.15
15 -0.15
16 0.09
17 0.2
18 -0.15
19 0.18
2 -0.19
20 0.19
21 -0.15
22 -0.15
23 -0.15
24 -0.15
25 0.36
29 0.15
3 -0.68
30 0.15
33 0.15
34 0.15
35 0.4
36 0.15
37 0.15
38 0.15
4 -0.57
5 -0.48
6 -0.7
7 -0.56
8 0.12
9 0.09

> <PUBCHEM_EFFECTIVE_ROTOR_COUNT>
3.4

> <PUBCHEM_PHARMACOPHORE_FEATURES>
8
1 3 acceptor
1 3 donor
1 4 acceptor
1 6 acceptor
1 7 acceptor
6 16 20 21 22 23 24 rings
6 8 9 14 15 18 19 rings
7 5 6 8 9 11 12 13 rings

> <PUBCHEM_HEAVY_ATOM_COUNT>
25

> <PUBCHEM_ATOM_DEF_STEREO_COUNT>
0

> <PUBCHEM_ATOM_UDEF_STEREO_COUNT>
1

> <PUBCHEM_BOND_DEF_STEREO_COUNT>
0

> <PUBCHEM_BOND_UDEF_STEREO_COUNT>
0

> <PUBCHEM_ISOTOPIC_ATOM_COUNT>
0

> <PUBCHEM_COMPONENT_COUNT>
1

> <PUBCHEM_CACTVS_TAUTO_COUNT>
1

> <PUBCHEM_CONFORMER_ID>
002E4A1500000001

> <PUBCHEM_MMFF94_ENERGY>
83.1858

> <PUBCHEM_FEATURE_SELFOVERLAP>
40.648

> <PUBCHEM_SHAPE_FINGERPRINT>
10165383 225 18046098022627249731
108634 29 17765132257250361071
10906281 52 17774169032098308848
11582403 64 16625699509805775432
12293681 25 17844545494284568302
12553582 1 17765701430928087355
13004483 165 16897066255289675723
13149001 5 18128267872424391564
13681431 1 17755855325348681595
16945 1 18337950099791648938
17980427 26 17769896295220456460
1813 80 17543922204369266399
18603816 31 13667666369704909255
20600515 1 16842463541164431003
20691752 17 18411695491502396705
21452121 99 18192144021952012786
22112679 90 17629762262565142771
22182313 1 17626112206590141888
2255824 54 18339908321558833659
22907989 373 17757005753792542535
23419403 2 17123703578853379175
23557571 272 17688871256044651262
23559900 14 16056871434126164377
238 59 18411414012394184179
25222932 49 17195680844962412311
2748010 2 17622442062003117090
4409770 3 17474650128708504370
5262128 65 17203620314550566897
5845 1 9597972693516715371
81228 2 17613441463912857955
9981440 41 16767008812885079328

> <PUBCHEM_SHAPE_MULTIPOLES>
482.4
5.9
4.11
2.44
6.03
6.1
-0.85
-2.79
-2.79
-1.94
1.38
-0.94
-2.41
-0.52

> <PUBCHEM_SHAPE_SELFOVERLAP>
1042.012

> <PUBCHEM_SHAPE_VOLUME>
263.1

> <PUBCHEM_COORDINATE_TYPE>
2
5
10

$$$$
