151171
  -OEChem-09252021203D

 64 69  0     0  0  0  0  0  0999 V2000
    2.8427   -3.0719   -0.7025 O   0  0  0  0  0  0  0  0  0  0  0  0
   -3.6186   -0.2529   -2.0144 O   0  0  0  0  0  0  0  0  0  0  0  0
    3.2275   -1.0670    0.4781 N   0  0  0  0  0  0  0  0  0  0  0  0
    4.0145    3.0606   -0.7100 N   0  0  0  0  0  0  0  0  0  0  0  0
    6.0375    2.1725   -0.6912 N   0  0  0  0  0  0  0  0  0  0  0  0
   -3.1737   -1.4347   -0.0311 N   0  0  0  0  0  0  0  0  0  0  0  0
    2.5318    1.2919    0.2130 C   0  0  0  0  0  0  0  0  0  0  0  0
    2.6696    0.1133    1.1593 C   0  0  0  0  0  0  0  0  0  0  0  0
    3.8599    1.7947   -0.2020 C   0  0  0  0  0  0  0  0  0  0  0  0
    5.1297    1.2489   -0.2010 C   0  0  0  0  0  0  0  0  0  0  0  0
    4.6629   -1.1808    0.4539 C   0  0  0  0  0  0  0  0  0  0  0  0
    5.5387   -0.0927    0.2190 C   0  0  0  0  0  0  0  0  0  0  0  0
    5.3364    3.2415   -0.9843 C   0  0  0  0  0  0  0  0  0  0  0  0
    2.4361   -2.0662   -0.1209 C   0  0  0  0  0  0  0  0  0  0  0  0
    5.2168   -2.4510    0.7325 C   0  0  0  0  0  0  0  0  0  0  0  0
    6.9307   -0.3269    0.2980 C   0  0  0  0  0  0  0  0  0  0  0  0
    0.9770   -1.9023   -0.0978 C   0  0  0  0  0  0  0  0  0  0  0  0
    6.5938   -2.6534    0.7953 C   0  0  0  0  0  0  0  0  0  0  0  0
    7.4522   -1.5883    0.5834 C   0  0  0  0  0  0  0  0  0  0  0  0
    5.8427    4.5084   -1.5413 C   0  0  0  0  0  0  0  0  0  0  0  0
    0.3409   -1.2339   -1.1390 C   0  0  0  0  0  0  0  0  0  0  0  0
    0.2414   -2.4165    0.9653 C   0  0  0  0  0  0  0  0  0  0  0  0
   -1.7877   -1.5915   -0.0538 C   0  0  0  0  0  0  0  0  0  0  0  0
   -1.0450   -1.0781   -1.1170 C   0  0  0  0  0  0  0  0  0  0  0  0
   -1.1446   -2.2608    0.9873 C   0  0  0  0  0  0  0  0  0  0  0  0
   -5.4368   -0.7679   -0.6581 C   0  0  0  0  0  0  0  0  0  0  0  0
   -5.9800    0.2763    0.0627 C   0  0  0  0  0  0  0  0  0  0  0  0
   -3.9856   -0.7968   -0.9785 C   0  0  0  0  0  0  0  0  0  0  0  0
   -5.1776    1.3857    0.5407 C   0  0  0  0  0  0  0  0  0  0  0  0
   -6.2051   -1.8233   -1.1111 C   0  0  0  0  0  0  0  0  0  0  0  0
   -7.3465    0.2662    0.3428 C   0  0  0  0  0  0  0  0  0  0  0  0
   -7.5715   -1.8334   -0.8310 C   0  0  0  0  0  0  0  0  0  0  0  0
   -8.1422   -0.7886   -0.1041 C   0  0  0  0  0  0  0  0  0  0  0  0
   -4.5786    1.3185    1.7968 C   0  0  0  0  0  0  0  0  0  0  0  0
   -5.0088    2.5149   -0.2576 C   0  0  0  0  0  0  0  0  0  0  0  0
   -3.8070    2.3857    2.2567 C   0  0  0  0  0  0  0  0  0  0  0  0
   -4.2372    3.5821    0.2023 C   0  0  0  0  0  0  0  0  0  0  0  0
   -3.6363    3.5175    1.4595 C   0  0  0  0  0  0  0  0  0  0  0  0
    1.9565    1.0255   -0.6785 H   0  0  0  0  0  0  0  0  0  0  0  0
    1.9826    2.0912    0.7258 H   0  0  0  0  0  0  0  0  0  0  0  0
    3.3014    0.3570    2.0241 H   0  0  0  0  0  0  0  0  0  0  0  0
    1.6860   -0.1290    1.5713 H   0  0  0  0  0  0  0  0  0  0  0  0
    3.2762    3.7382   -0.8481 H   0  0  0  0  0  0  0  0  0  0  0  0
    4.5815   -3.3025    0.9665 H   0  0  0  0  0  0  0  0  0  0  0  0
    7.6451    0.4766    0.1252 H   0  0  0  0  0  0  0  0  0  0  0  0
    6.9898   -3.6377    1.0262 H   0  0  0  0  0  0  0  0  0  0  0  0
    8.5270   -1.7335    0.6351 H   0  0  0  0  0  0  0  0  0  0  0  0
    6.9259    4.4598   -1.6909 H   0  0  0  0  0  0  0  0  0  0  0  0
    5.3771    4.7207   -2.5087 H   0  0  0  0  0  0  0  0  0  0  0  0
    5.6321    5.3419   -0.8639 H   0  0  0  0  0  0  0  0  0  0  0  0
    0.9108   -0.8360   -1.9745 H   0  0  0  0  0  0  0  0  0  0  0  0
    0.7339   -2.9390    1.7811 H   0  0  0  0  0  0  0  0  0  0  0  0
   -1.4685   -0.5496   -1.9592 H   0  0  0  0  0  0  0  0  0  0  0  0
   -1.7108   -2.6655    1.8224 H   0  0  0  0  0  0  0  0  0  0  0  0
   -3.6446   -1.8317    0.7795 H   0  0  0  0  0  0  0  0  0  0  0  0
   -5.7680   -2.6404   -1.6779 H   0  0  0  0  0  0  0  0  0  0  0  0
   -7.8092    1.0718    0.9082 H   0  0  0  0  0  0  0  0  0  0  0  0
   -8.1911   -2.6547   -1.1789 H   0  0  0  0  0  0  0  0  0  0  0  0
   -9.2061   -0.7967    0.1138 H   0  0  0  0  0  0  0  0  0  0  0  0
   -4.7009    0.4431    2.4301 H   0  0  0  0  0  0  0  0  0  0  0  0
   -5.4697    2.5807   -1.2402 H   0  0  0  0  0  0  0  0  0  0  0  0
   -3.3386    2.3351    3.2352 H   0  0  0  0  0  0  0  0  0  0  0  0
   -4.1038    4.4631   -0.4185 H   0  0  0  0  0  0  0  0  0  0  0  0
   -3.0352    4.3481    1.8174 H   0  0  0  0  0  0  0  0  0  0  0  0
  1 14  2  0  0  0  0
  2 28  2  0  0  0  0
  3  8  1  0  0  0  0
  3 11  1  0  0  0  0
  3 14  1  0  0  0  0
  4  9  1  0  0  0  0
  4 13  1  0  0  0  0
  4 43  1  0  0  0  0
  5 10  1  0  0  0  0
  5 13  2  0  0  0  0
  6 23  1  0  0  0  0
  6 28  1  0  0  0  0
  6 55  1  0  0  0  0
  7  8  1  0  0  0  0
  7  9  1  0  0  0  0
  7 39  1  0  0  0  0
  7 40  1  0  0  0  0
  8 41  1  0  0  0  0
  8 42  1  0  0  0  0
  9 10  2  0  0  0  0
 10 12  1  0  0  0  0
 11 12  1  0  0  0  0
 11 15  2  0  0  0  0
 12 16  2  0  0  0  0
 13 20  1  0  0  0  0
 14 17  1  0  0  0  0
 15 18  1  0  0  0  0
 15 44  1  0  0  0  0
 16 19  1  0  0  0  0
 16 45  1  0  0  0  0
 17 21  2  0  0  0  0
 17 22  1  0  0  0  0
 18 19  2  0  0  0  0
 18 46  1  0  0  0  0
 19 47  1  0  0  0  0
 20 48  1  0  0  0  0
 20 49  1  0  0  0  0
 20 50  1  0  0  0  0
 21 24  1  0  0  0  0
 21 51  1  0  0  0  0
 22 25  2  0  0  0  0
 22 52  1  0  0  0  0
 23 24  2  0  0  0  0
 23 25  1  0  0  0  0
 24 53  1  0  0  0  0
 25 54  1  0  0  0  0
 26 27  1  0  0  0  0
 26 28  1  0  0  0  0
 26 30  2  0  0  0  0
 27 29  1  0  0  0  0
 27 31  2  0  0  0  0
 29 34  2  0  0  0  0
 29 35  1  0  0  0  0
 30 32  1  0  0  0  0
 30 56  1  0  0  0  0
 31 33  1  0  0  0  0
 31 57  1  0  0  0  0
 32 33  2  0  0  0  0
 32 58  1  0  0  0  0
 33 59  1  0  0  0  0
 34 36  1  0  0  0  0
 34 60  1  0  0  0  0
 35 37  2  0  0  0  0
 35 61  1  0  0  0  0
 36 38  2  0  0  0  0
 36 62  1  0  0  0  0
 37 38  1  0  0  0  0
 37 63  1  0  0  0  0
 38 64  1  0  0  0  0
M  END
> <PUBCHEM_COMPOUND_CID>
151171

> <PUBCHEM_CONFORMER_RMSD>
1

> <PUBCHEM_CONFORMER_DIVERSEORDER>
1
16
12
15
58
49
53
45
21
37
43
40
42
46
57
5
44
31
38
41
10
28
50
54
4
9
36
60
18
35
52
29
7
32
56
26
17
3
27
14
11
59
61
39
48
8
20
30
55
6
62
25
34
13
47
22
23
2
51
24
33
19

> <PUBCHEM_MMFF94_PARTIAL_CHARGES>
55
1 -0.57
10 0.17
11 0.12
12 0.05
13 0.01
14 0.54
15 -0.15
16 -0.15
17 0.09
18 -0.15
19 -0.15
2 -0.57
20 0.18
21 -0.15
22 -0.15
23 0.12
24 -0.15
25 -0.15
26 0.09
28 0.54
3 -0.48
30 -0.15
31 -0.15
32 -0.15
33 -0.15
34 -0.15
35 -0.15
36 -0.15
37 -0.15
38 -0.15
4 0.03
43 0.27
44 0.15
45 0.15
46 0.15
47 0.15
5 -0.57
51 0.15
52 0.15
53 0.15
54 0.15
55 0.37
56 0.15
57 0.15
58 0.15
59 0.15
6 -0.55
60 0.15
61 0.15
62 0.15
63 0.15
64 0.15
7 0.18
8 0.3
9 -0.33

> <PUBCHEM_EFFECTIVE_ROTOR_COUNT>
6.6

> <PUBCHEM_PHARMACOPHORE_FEATURES>
11
1 1 acceptor
1 2 acceptor
1 4 donor
1 6 donor
3 4 5 13 cation
5 4 5 9 10 13 rings
6 11 12 15 16 18 19 rings
6 17 21 22 23 24 25 rings
6 26 27 30 31 32 33 rings
6 29 34 35 36 37 38 rings
7 3 7 8 9 10 11 12 rings

> <PUBCHEM_HEAVY_ATOM_COUNT>
38

> <PUBCHEM_ATOM_DEF_STEREO_COUNT>
0

> <PUBCHEM_ATOM_UDEF_STEREO_COUNT>
0

> <PUBCHEM_BOND_DEF_STEREO_COUNT>
0

> <PUBCHEM_BOND_UDEF_STEREO_COUNT>
0

> <PUBCHEM_ISOTOPIC_ATOM_COUNT>
0

> <PUBCHEM_COMPONENT_COUNT>
1

> <PUBCHEM_CACTVS_TAUTO_COUNT>
6

> <PUBCHEM_CONFORMER_ID>
00024E8300000001

> <PUBCHEM_MMFF94_ENERGY>
139.2256

> <PUBCHEM_FEATURE_SELFOVERLAP>
55.867

> <PUBCHEM_SHAPE_FINGERPRINT>
100830 39 18272084934009125099
10670039 82 18201148876476162251
11101153 10 18410292510924067101
11456790 92 18260821563202497506
12664476 115 18130496458351350899
12728209 76 18202570566090366558
13947935 32 18410297982908055745
14040222 275 18263661588920764510
14394314 77 18340778100578368881
14400156 266 18201451242806829004
14664723 55 17970926668164871404
14849402 71 18408885161224794292
14856354 85 17988915717803687527
15183329 4 18342463651116771796
15419008 145 18265322929224944304
15538507 32 18128536170779698273
16112460 7 18334014999621998120
19302320 297 18265061223366116361
19611394 137 18191312783373878851
22122407 14 18408895052903547530
249057 25 18343586230723893987
2838139 119 18335986393388598651
3552219 110 18201166529429974521
4073 2 17896319293086164394
4144715 1 18270688558511365287
4197921 191 18411140268105573916
44555599 121 18410013239064969810
57724786 102 18334292106875171982
5776283 40 18054793050943964296
6057620 51 18340198713420862079

> <PUBCHEM_SHAPE_MULTIPOLES>
750.36
23.72
4.66
1.41
5.58
4.48
-0.18
1.62
1.12
-4.21
0.36
0.95
0.62
-5.16

> <PUBCHEM_SHAPE_SELFOVERLAP>
1682.182

> <PUBCHEM_SHAPE_VOLUME>
395.8

> <PUBCHEM_COORDINATE_TYPE>
2
5
10

$$$$
