2976
  -OEChem-09252021203D

 65 67  0     1  0  0  0  0  0999 V2000
   -0.8487   -0.4716   -1.3513 O   0  0  0  0  0  0  0  0  0  0  0  0
   -1.3245    2.3144    1.5619 O   0  0  0  0  0  0  0  0  0  0  0  0
    2.2325    2.9814    1.0579 O   0  0  0  0  0  0  0  0  0  0  0  0
   -2.0374    4.4272    1.1430 O   0  0  0  0  0  0  0  0  0  0  0  0
    2.9846    3.1729   -1.1127 O   0  0  0  0  0  0  0  0  0  0  0  0
   -2.1925    1.2967   -0.6919 N   0  0  0  0  0  0  0  0  0  0  0  0
    1.2969    1.0552   -1.7320 N   0  0  0  0  0  0  0  0  0  0  0  0
   -3.1983    0.4276   -0.1479 C   0  0  0  0  0  0  0  0  0  0  0  0
   -3.8014   -0.5095   -1.2111 C   0  0  0  0  0  0  0  0  0  0  0  0
   -2.6591   -0.4714    0.9813 C   0  0  0  0  0  0  0  0  0  0  0  0
   -4.2124   -1.6779   -0.3718 C   0  0  0  0  0  0  0  0  0  0  0  0
   -3.5660   -1.6562    0.8693 C   0  0  0  0  0  0  0  0  0  0  0  0
   -1.0415    0.7468   -1.2790 C   0  0  0  0  0  0  0  0  0  0  0  0
   -0.0029    1.7139   -1.8465 C   0  0  2  0  0  0  0  0  0  0  0  0
   -2.4382    2.7302   -0.5166 C   0  0  0  0  0  0  0  0  0  0  0  0
   -5.0708   -2.7098   -0.7118 C   0  0  0  0  0  0  0  0  0  0  0  0
   -3.7648   -2.6662    1.7958 C   0  0  0  0  0  0  0  0  0  0  0  0
    1.8116    1.1620   -0.3755 C   0  0  1  0  0  0  0  0  0  0  0  0
   -5.2866   -3.7265    0.2210 C   0  0  0  0  0  0  0  0  0  0  0  0
   -4.6382   -3.7048    1.4659 C   0  0  0  0  0  0  0  0  0  0  0  0
   -0.2811    2.0445   -3.3119 C   0  0  0  0  0  0  0  0  0  0  0  0
    2.8784    0.0937   -0.0864 C   0  0  0  0  0  0  0  0  0  0  0  0
   -1.9243    3.2571    0.7985 C   0  0  0  0  0  0  0  0  0  0  0  0
    2.4116   -1.3597   -0.2498 C   0  0  0  0  0  0  0  0  0  0  0  0
    2.4213    2.5459   -0.2248 C   0  0  0  0  0  0  0  0  0  0  0  0
    3.4998   -2.3775   -0.0181 C   0  0  0  0  0  0  0  0  0  0  0  0
    4.2903   -2.8082   -1.0837 C   0  0  0  0  0  0  0  0  0  0  0  0
    3.7163   -2.8883    1.2619 C   0  0  0  0  0  0  0  0  0  0  0  0
    2.7499    4.2833    1.3505 C   0  0  0  0  0  0  0  0  0  0  0  0
    5.2971   -3.7496   -0.8695 C   0  0  0  0  0  0  0  0  0  0  0  0
    4.7232   -3.8295    1.4759 C   0  0  0  0  0  0  0  0  0  0  0  0
    5.5136   -4.2602    0.4102 C   0  0  0  0  0  0  0  0  0  0  0  0
    2.4616    4.6143    2.7994 C   0  0  0  0  0  0  0  0  0  0  0  0
   -4.0199    1.0272    0.2720 H   0  0  0  0  0  0  0  0  0  0  0  0
   -4.6648   -0.0363   -1.6910 H   0  0  0  0  0  0  0  0  0  0  0  0
   -3.1099   -0.8369   -1.9911 H   0  0  0  0  0  0  0  0  0  0  0  0
   -2.7739    0.0209    1.9528 H   0  0  0  0  0  0  0  0  0  0  0  0
   -1.6184   -0.7857    0.8729 H   0  0  0  0  0  0  0  0  0  0  0  0
    0.0131    2.6540   -1.2897 H   0  0  0  0  0  0  0  0  0  0  0  0
   -1.9609    3.2975   -1.3175 H   0  0  0  0  0  0  0  0  0  0  0  0
   -3.5151    2.9199   -0.5786 H   0  0  0  0  0  0  0  0  0  0  0  0
   -5.5645   -2.7342   -1.6774 H   0  0  0  0  0  0  0  0  0  0  0  0
   -3.2565   -2.6571    2.7539 H   0  0  0  0  0  0  0  0  0  0  0  0
    1.0076    1.0394    0.3609 H   0  0  0  0  0  0  0  0  0  0  0  0
    1.9676    1.4422   -2.3949 H   0  0  0  0  0  0  0  0  0  0  0  0
   -5.9583   -4.5460   -0.0202 H   0  0  0  0  0  0  0  0  0  0  0  0
   -4.8140   -4.5078    2.1766 H   0  0  0  0  0  0  0  0  0  0  0  0
   -0.2694    1.1411   -3.9329 H   0  0  0  0  0  0  0  0  0  0  0  0
    0.4642    2.7423   -3.7085 H   0  0  0  0  0  0  0  0  0  0  0  0
   -1.2690    2.5011   -3.4311 H   0  0  0  0  0  0  0  0  0  0  0  0
    3.2546    0.2362    0.9361 H   0  0  0  0  0  0  0  0  0  0  0  0
    3.7470    0.2654   -0.7382 H   0  0  0  0  0  0  0  0  0  0  0  0
    2.0006   -1.5149   -1.2552 H   0  0  0  0  0  0  0  0  0  0  0  0
    1.5790   -1.5546    0.4387 H   0  0  0  0  0  0  0  0  0  0  0  0
   -0.9950    2.6823    2.4094 H   0  0  0  0  0  0  0  0  0  0  0  0
    4.1328   -2.4160   -2.0850 H   0  0  0  0  0  0  0  0  0  0  0  0
    3.1082   -2.5589    2.1002 H   0  0  0  0  0  0  0  0  0  0  0  0
    2.2685    5.0216    0.6996 H   0  0  0  0  0  0  0  0  0  0  0  0
    3.8316    4.2940    1.1763 H   0  0  0  0  0  0  0  0  0  0  0  0
    5.9129   -4.0845   -1.6990 H   0  0  0  0  0  0  0  0  0  0  0  0
    4.8923   -4.2268    2.4725 H   0  0  0  0  0  0  0  0  0  0  0  0
    6.2977   -4.9929    0.5771 H   0  0  0  0  0  0  0  0  0  0  0  0
    1.3840    4.5881    2.9928 H   0  0  0  0  0  0  0  0  0  0  0  0
    2.9214    3.8740    3.4625 H   0  0  0  0  0  0  0  0  0  0  0  0
    2.8433    5.6058    3.0577 H   0  0  0  0  0  0  0  0  0  0  0  0
  1 13  2  0  0  0  0
  2 23  1  0  0  0  0
  2 55  1  0  0  0  0
  3 25  1  0  0  0  0
  3 29  1  0  0  0  0
  4 23  2  0  0  0  0
  5 25  2  0  0  0  0
  6  8  1  0  0  0  0
  6 13  1  0  0  0  0
  6 15  1  0  0  0  0
  7 14  1  0  0  0  0
  7 18  1  0  0  0  0
  7 45  1  0  0  0  0
  8  9  1  0  0  0  0
  8 10  1  0  0  0  0
  8 34  1  0  0  0  0
  9 11  1  0  0  0  0
  9 35  1  0  0  0  0
  9 36  1  0  0  0  0
 10 12  1  0  0  0  0
 10 37  1  0  0  0  0
 10 38  1  0  0  0  0
 11 12  1  0  0  0  0
 11 16  2  0  0  0  0
 12 17  2  0  0  0  0
 13 14  1  0  0  0  0
 14 21  1  0  0  0  0
 14 39  1  0  0  0  0
 15 23  1  0  0  0  0
 15 40  1  0  0  0  0
 15 41  1  0  0  0  0
 16 19  1  0  0  0  0
 16 42  1  0  0  0  0
 17 20  1  0  0  0  0
 17 43  1  0  0  0  0
 18 22  1  0  0  0  0
 18 25  1  0  0  0  0
 18 44  1  0  0  0  0
 19 20  2  0  0  0  0
 19 46  1  0  0  0  0
 20 47  1  0  0  0  0
 21 48  1  0  0  0  0
 21 49  1  0  0  0  0
 21 50  1  0  0  0  0
 22 24  1  0  0  0  0
 22 51  1  0  0  0  0
 22 52  1  0  0  0  0
 24 26  1  0  0  0  0
 24 53  1  0  0  0  0
 24 54  1  0  0  0  0
 26 27  2  0  0  0  0
 26 28  1  0  0  0  0
 27 30  1  0  0  0  0
 27 56  1  0  0  0  0
 28 31  2  0  0  0  0
 28 57  1  0  0  0  0
 29 33  1  0  0  0  0
 29 58  1  0  0  0  0
 29 59  1  0  0  0  0
 30 32  2  0  0  0  0
 30 60  1  0  0  0  0
 31 32  1  0  0  0  0
 31 61  1  0  0  0  0
 32 62  1  0  0  0  0
 33 63  1  0  0  0  0
 33 64  1  0  0  0  0
 33 65  1  0  0  0  0
M  END
> <PUBCHEM_COMPOUND_CID>
2976

> <PUBCHEM_CONFORMER_RMSD>
1.2

> <PUBCHEM_CONFORMER_DIVERSEORDER>
1
171
167
69
27
32
31
58
187
41
70
205
60
83
213
56
209
183
139
114
203
123
174
84
216
191
156
176
136
177
85
178
124
77
59
168
80
163
87
71
138
192
98
212
42
19
119
173
57
214
66
76
54
75
127
25
159
113
46
78
44
197
186
116
185
48
55
135
105
117
211
49
166
67
9
97
73
104
180
201
26
200
111
153
93
142
144
79
110
189
169
162
157
202
61
190
37
155
86
106
147
158
199
170
82
47
175
21
51
188
137
23
131
210
134
53
133
18
14
92
182
11
89
204
154
91
45
99
143
118
29
20
198
35
10
100
43
196
126
12
141
112
145
194
179
125
62
215
130
181
109
63
3
217
40
52
96
184
103
146
4
128
206
115
165
107
208
95
33
149
5
13
8
24
22
121
132
172
108
30
68
195
164
94
120
65
64
161
50
122
129
38
36
152
28
15
34
102
151
81
74
2
72
160
140
150
90
39
193
17
101
7
16
207
148
6
88

> <PUBCHEM_MMFF94_PARTIAL_CHARGES>
41
1 -0.57
10 0.14
11 -0.14
12 -0.14
13 0.57
14 0.33
15 0.36
16 -0.15
17 -0.15
18 0.33
19 -0.15
2 -0.65
20 -0.15
23 0.66
24 0.14
25 0.66
26 -0.14
27 -0.15
28 -0.15
29 0.28
3 -0.43
30 -0.15
31 -0.15
32 -0.15
4 -0.57
42 0.15
43 0.15
45 0.36
46 0.15
47 0.15
5 -0.57
55 0.5
56 0.15
57 0.15
6 -0.66
60 0.15
61 0.15
62 0.15
7 -0.9
8 0.3
9 0.14

> <PUBCHEM_EFFECTIVE_ROTOR_COUNT>
13.6

> <PUBCHEM_PHARMACOPHORE_FEATURES>
10
1 1 acceptor
1 2 acceptor
1 4 acceptor
1 5 acceptor
1 7 cation
1 7 donor
3 2 4 23 anion
5 8 9 10 11 12 rings
6 11 12 16 17 19 20 rings
6 26 27 28 30 31 32 rings

> <PUBCHEM_HEAVY_ATOM_COUNT>
33

> <PUBCHEM_ATOM_DEF_STEREO_COUNT>
0

> <PUBCHEM_ATOM_UDEF_STEREO_COUNT>
2

> <PUBCHEM_BOND_DEF_STEREO_COUNT>
0

> <PUBCHEM_BOND_UDEF_STEREO_COUNT>
0

> <PUBCHEM_ISOTOPIC_ATOM_COUNT>
0

> <PUBCHEM_COMPONENT_COUNT>
1

> <PUBCHEM_CACTVS_TAUTO_COUNT>
1

> <PUBCHEM_CONFORMER_ID>
00000BA000000001

> <PUBCHEM_MMFF94_ENERGY>
77.4357

> <PUBCHEM_FEATURE_SELFOVERLAP>
50.888

> <PUBCHEM_SHAPE_FINGERPRINT>
10816530 145 17977099064238592664
11093857 51 17609795436669181822
11285246 1 17967256377316739259
12977781 61 16810617449897760414
13383661 66 16886998495355036826
14068700 675 18410289177840009215
14856354 85 17983017748289757198
14863182 85 17829619700719211292
14910700 183 17693371552726191897
15219462 58 18340758334057373484
15911013 46 18335420157780135402
17492 89 18408323315268229455
17909252 39 18336272356880713170
18393751 57 17549529056324565689
19311894 1 18048601421604925930
19315092 285 18058454368739719027
19319366 153 17907300201775178564
19611394 137 18048857634660129402
1979834 28 17974006451008318435
20775530 9 18187374207140147163
21703447 108 18338789121642541979
23559900 14 18259699012942617607
23572383 38 17897713487052416659
3383291 50 18051694348382642955
392239 28 17769089390829437832
4616759 239 17838596887623839914
5486654 36 18190752929051906642
6371380 46 18047179762034315733
86090 222 17907029721919792736

> <PUBCHEM_SHAPE_MULTIPOLES>
639.82
11.66
7.84
2.21
1.21
2.09
-0.31
-19.11
2.04
5.75
4.28
0.3
1.91
1.87

> <PUBCHEM_SHAPE_SELFOVERLAP>
1342.043

> <PUBCHEM_SHAPE_VOLUME>
361.4

> <PUBCHEM_COORDINATE_TYPE>
2
5
10

$$$$
