50894
  -OEChem-09252021203D

 46 46  0     1  0  0  0  0  0999 V2000
    1.3059   -1.5893    0.1881 O   0  0  0  0  0  0  0  0  0  0  0  0
    3.9763   -2.2480    0.5958 O   0  0  0  0  0  0  0  0  0  0  0  0
    0.7351   -0.6747    2.6447 O   0  0  0  0  0  0  0  0  0  0  0  0
   -4.5985    1.1232    0.8419 O   0  0  0  0  0  0  0  0  0  0  0  0
    3.3458    0.9832   -1.0990 N   0  0  0  0  0  0  0  0  0  0  0  0
   -3.9165   -0.1568   -1.0169 N   0  0  0  0  0  0  0  0  0  0  0  0
    3.5996   -1.4075   -0.4987 C   0  0  2  0  0  0  0  0  0  0  0  0
    3.7465    0.0499   -0.0550 C   0  0  0  0  0  0  0  0  0  0  0  0
    3.4414    2.3595   -0.6320 C   0  0  0  0  0  0  0  0  0  0  0  0
    2.1781   -1.7701   -0.9233 C   0  0  0  0  0  0  0  0  0  0  0  0
    3.0632    3.3078   -1.7652 C   0  0  0  0  0  0  0  0  0  0  0  0
    2.5413    2.5700    0.5824 C   0  0  0  0  0  0  0  0  0  0  0  0
    0.0156   -1.2290   -0.0949 C   0  0  0  0  0  0  0  0  0  0  0  0
   -0.7168   -0.4535    0.7989 C   0  0  0  0  0  0  0  0  0  0  0  0
   -0.5530   -1.6499   -1.2936 C   0  0  0  0  0  0  0  0  0  0  0  0
   -2.0295   -0.0957    0.4915 C   0  0  0  0  0  0  0  0  0  0  0  0
   -2.6039   -0.5151   -0.7084 C   0  0  0  0  0  0  0  0  0  0  0  0
   -1.8657   -1.2920   -1.6010 C   0  0  0  0  0  0  0  0  0  0  0  0
   -0.1351   -0.0043    2.0562 C   0  0  0  0  0  0  0  0  0  0  0  0
   -0.5856    1.3094    2.6833 C   0  0  0  0  0  0  0  0  0  0  0  0
   -4.8060    0.6110   -0.2533 C   0  0  0  0  0  0  0  0  0  0  0  0
   -6.1384    0.7721   -0.9413 C   0  0  0  0  0  0  0  0  0  0  0  0
    4.2843   -1.6190   -1.3287 H   0  0  0  0  0  0  0  0  0  0  0  0
    3.1545    0.1600    0.8591 H   0  0  0  0  0  0  0  0  0  0  0  0
    4.7901    0.2283    0.2358 H   0  0  0  0  0  0  0  0  0  0  0  0
    4.4771    2.5854   -0.3472 H   0  0  0  0  0  0  0  0  0  0  0  0
    3.9327    0.8508   -1.9221 H   0  0  0  0  0  0  0  0  0  0  0  0
    2.1452   -2.8289   -1.2065 H   0  0  0  0  0  0  0  0  0  0  0  0
    1.9013   -1.1550   -1.7880 H   0  0  0  0  0  0  0  0  0  0  0  0
    2.0306    3.1466   -2.0955 H   0  0  0  0  0  0  0  0  0  0  0  0
    3.1539    4.3513   -1.4446 H   0  0  0  0  0  0  0  0  0  0  0  0
    3.7208    3.1704   -2.6308 H   0  0  0  0  0  0  0  0  0  0  0  0
    2.9469    2.1187    1.4930 H   0  0  0  0  0  0  0  0  0  0  0  0
    1.5322    2.1785    0.4119 H   0  0  0  0  0  0  0  0  0  0  0  0
    2.4387    3.6404    0.7970 H   0  0  0  0  0  0  0  0  0  0  0  0
    4.8977   -2.0364    0.8237 H   0  0  0  0  0  0  0  0  0  0  0  0
   -0.0290   -2.2842   -2.0021 H   0  0  0  0  0  0  0  0  0  0  0  0
   -2.5714    0.4880    1.2203 H   0  0  0  0  0  0  0  0  0  0  0  0
   -2.3035   -1.6317   -2.5364 H   0  0  0  0  0  0  0  0  0  0  0  0
   -4.2622   -0.5014   -1.9101 H   0  0  0  0  0  0  0  0  0  0  0  0
   -1.4355    1.1281    3.3456 H   0  0  0  0  0  0  0  0  0  0  0  0
   -0.8494    2.0392    1.9130 H   0  0  0  0  0  0  0  0  0  0  0  0
    0.2435    1.7299    3.2605 H   0  0  0  0  0  0  0  0  0  0  0  0
   -6.5816   -0.2103   -1.1267 H   0  0  0  0  0  0  0  0  0  0  0  0
   -6.8150    1.3520   -0.3077 H   0  0  0  0  0  0  0  0  0  0  0  0
   -6.0025    1.2973   -1.8909 H   0  0  0  0  0  0  0  0  0  0  0  0
  1 10  1  0  0  0  0
  1 13  1  0  0  0  0
  2  7  1  0  0  0  0
  2 36  1  0  0  0  0
  3 19  2  0  0  0  0
  4 21  2  0  0  0  0
  5  8  1  0  0  0  0
  5  9  1  0  0  0  0
  5 27  1  0  0  0  0
  6 17  1  0  0  0  0
  6 21  1  0  0  0  0
  6 40  1  0  0  0  0
  7  8  1  0  0  0  0
  7 10  1  0  0  0  0
  7 23  1  0  0  0  0
  8 24  1  0  0  0  0
  8 25  1  0  0  0  0
  9 11  1  0  0  0  0
  9 12  1  0  0  0  0
  9 26  1  0  0  0  0
 10 28  1  0  0  0  0
 10 29  1  0  0  0  0
 11 30  1  0  0  0  0
 11 31  1  0  0  0  0
 11 32  1  0  0  0  0
 12 33  1  0  0  0  0
 12 34  1  0  0  0  0
 12 35  1  0  0  0  0
 13 14  2  0  0  0  0
 13 15  1  0  0  0  0
 14 16  1  0  0  0  0
 14 19  1  0  0  0  0
 15 18  2  0  0  0  0
 15 37  1  0  0  0  0
 16 17  2  0  0  0  0
 16 38  1  0  0  0  0
 17 18  1  0  0  0  0
 18 39  1  0  0  0  0
 19 20  1  0  0  0  0
 20 41  1  0  0  0  0
 20 42  1  0  0  0  0
 20 43  1  0  0  0  0
 21 22  1  0  0  0  0
 22 44  1  0  0  0  0
 22 45  1  0  0  0  0
 22 46  1  0  0  0  0
M  END
> <PUBCHEM_COMPOUND_CID>
50894

> <PUBCHEM_CONFORMER_RMSD>
1

> <PUBCHEM_CONFORMER_DIVERSEORDER>
1
648
552
391
428
269
724
74
455
647
761
485
234
546
599
692
262
431
517
529
364
483
460
528
345
290
442
482
198
350
734
303
469
668
349
597
718
385
500
128
561
100
18
662
90
760
522
514
568
437
110
489
595
545
310
306
38
507
43
366
619
143
682
318
598
583
207
395
183
707
80
539
119
466
257
549
490
544
714
8
645
117
107
102
120
449
452
7
272
435
209
220
57
94
730
392
151
29
389
235
204
623
59
78
695
440
185
228
127
319
467
527
243
256
71
681
67
68
47
164
254
417
92
313
89
666
169
135
273
31
227
28
33
186
481
172
166
75
25
149
95
170
495
654
9
12
58
113
334
564
81
398
51
214
53
40
133
758
116
150
115
30
36
70
430
271
160
406
338
213
2
456
63
56
132
378
297
536
341
15
108
142
3
388
34
239
22
422
587
105
24
35
45
69
86
82
16
368
26
178
225
5

> <PUBCHEM_MMFF94_PARTIAL_CHARGES>
26
1 -0.36
10 0.28
13 0.08
14 0.09
15 -0.15
16 -0.15
17 0.12
18 -0.15
19 0.42
2 -0.68
20 0.06
21 0.57
22 0.06
27 0.36
3 -0.57
36 0.4
37 0.15
38 0.15
39 0.15
4 -0.57
40 0.37
5 -0.9
6 -0.55
7 0.28
8 0.27
9 0.27

> <PUBCHEM_EFFECTIVE_ROTOR_COUNT>
9

> <PUBCHEM_PHARMACOPHORE_FEATURES>
10
1 1 acceptor
1 2 acceptor
1 2 donor
1 3 acceptor
1 4 acceptor
1 5 cation
1 5 donor
1 6 donor
3 9 11 12 hydrophobe
6 13 14 15 16 17 18 rings

> <PUBCHEM_HEAVY_ATOM_COUNT>
22

> <PUBCHEM_ATOM_DEF_STEREO_COUNT>
0

> <PUBCHEM_ATOM_UDEF_STEREO_COUNT>
1

> <PUBCHEM_BOND_DEF_STEREO_COUNT>
0

> <PUBCHEM_BOND_UDEF_STEREO_COUNT>
0

> <PUBCHEM_ISOTOPIC_ATOM_COUNT>
0

> <PUBCHEM_COMPONENT_COUNT>
1

> <PUBCHEM_CACTVS_TAUTO_COUNT>
4

> <PUBCHEM_CONFORMER_ID>
0000C6CE00000001

> <PUBCHEM_MMFF94_ENERGY>
56.6092

> <PUBCHEM_FEATURE_SELFOVERLAP>
50.758

> <PUBCHEM_SHAPE_FINGERPRINT>
11578080 2 17460909351227901920
11640471 11 18199201748710132452
12035759 4 17632029592891107321
12166972 35 18130224844408691462
12633257 1 15431716743734226092
12788726 201 17131568183653238784
12839892 36 13479130203327900585
13583140 156 18114476590603282195
14115302 16 17846492625881412782
14251764 3 16877943845253798421
14251764 30 11243620693986230912
14468879 13 17899138501097544904
15295992 7 17313106384378765472
16752209 62 16988297394847921778
17959699 21 18412545405574494437
192875 21 18202289074302739698
20715895 44 18128816344154146333
20775530 9 12892590236317536996
21285901 2 14692573199629304313
21475661 188 17748823025319018701
22620623 9 14475867150286635017
23557571 272 15339125598169527482
23559900 14 17917717872622160870
427121 178 16081083779480660728
4463277 69 11743846858467727773
474 4 18261111923748838916
537710 114 17704352147756498863
57724786 102 17604711226499990572
633830 44 17822283638969087605
7164475 11 17416695635143681434
9981440 41 17830733515184396280

> <PUBCHEM_SHAPE_MULTIPOLES>
419.31
9.62
2.78
2.08
10.12
1.35
-1.31
3.86
4.03
-3.92
0.96
-0.12
0.72
-1.51

> <PUBCHEM_SHAPE_SELFOVERLAP>
847.851

> <PUBCHEM_SHAPE_VOLUME>
246

> <PUBCHEM_COORDINATE_TYPE>
2
5
10

$$$$
