122252
  -OEChem-09252021213D

 40 42  0     1  0  0  0  0  0999 V2000
   -1.5385   -1.8702    1.6651 S   0  0  0  0  0  0  0  0  0  0  0  0
   -0.1370    0.3489   -0.8978 O   0  0  0  0  0  0  0  0  0  0  0  0
   -4.6895    1.9595   -0.4717 N   0  0  0  0  0  0  0  0  0  0  0  0
   -1.2751    0.2803   -0.0436 C   0  0  1  0  0  0  0  0  0  0  0  0
   -2.3925    1.1278   -0.6650 C   0  0  0  0  0  0  0  0  0  0  0  0
   -3.6660    1.1505    0.1808 C   0  0  0  0  0  0  0  0  0  0  0  0
   -1.6375   -1.1783    0.1192 C   0  0  0  0  0  0  0  0  0  0  0  0
    0.9940    0.9101   -0.3766 C   0  0  0  0  0  0  0  0  0  0  0  0
    2.1929    0.1849   -0.2818 C   0  0  0  0  0  0  0  0  0  0  0  0
    3.3387    0.8105    0.2649 C   0  0  0  0  0  0  0  0  0  0  0  0
   -2.0468   -2.0392   -0.8476 C   0  0  0  0  0  0  0  0  0  0  0  0
    0.9256    2.2329    0.0614 C   0  0  0  0  0  0  0  0  0  0  0  0
    2.2800   -1.1473   -0.7176 C   0  0  0  0  0  0  0  0  0  0  0  0
    3.2518    2.1428    0.7006 C   0  0  0  0  0  0  0  0  0  0  0  0
    2.0523    2.8481    0.5989 C   0  0  0  0  0  0  0  0  0  0  0  0
    4.5377    0.0855    0.3596 C   0  0  0  0  0  0  0  0  0  0  0  0
   -2.2948   -3.3335   -0.3063 C   0  0  0  0  0  0  0  0  0  0  0  0
   -2.0578   -3.3814    1.0498 C   0  0  0  0  0  0  0  0  0  0  0  0
   -5.9228    1.9584    0.3019 C   0  0  0  0  0  0  0  0  0  0  0  0
    3.4794   -1.8527   -0.6158 C   0  0  0  0  0  0  0  0  0  0  0  0
    4.6061   -1.2375   -0.0783 C   0  0  0  0  0  0  0  0  0  0  0  0
   -1.0483    0.7047    0.9455 H   0  0  0  0  0  0  0  0  0  0  0  0
   -2.6197    0.7538   -1.6730 H   0  0  0  0  0  0  0  0  0  0  0  0
   -2.0342    2.1536   -0.8171 H   0  0  0  0  0  0  0  0  0  0  0  0
   -3.4341    1.5656    1.1689 H   0  0  0  0  0  0  0  0  0  0  0  0
   -4.0425    0.1313    0.3225 H   0  0  0  0  0  0  0  0  0  0  0  0
   -2.1672   -1.7810   -1.8917 H   0  0  0  0  0  0  0  0  0  0  0  0
   -4.8763    1.5896   -1.4034 H   0  0  0  0  0  0  0  0  0  0  0  0
    0.0085    2.8082   -0.0179 H   0  0  0  0  0  0  0  0  0  0  0  0
    1.4195   -1.6580   -1.1439 H   0  0  0  0  0  0  0  0  0  0  0  0
    4.1201    2.6439    1.1234 H   0  0  0  0  0  0  0  0  0  0  0  0
    1.9994    3.8789    0.9371 H   0  0  0  0  0  0  0  0  0  0  0  0
    5.4309    0.5462    0.7763 H   0  0  0  0  0  0  0  0  0  0  0  0
   -2.6294   -4.1864   -0.8824 H   0  0  0  0  0  0  0  0  0  0  0  0
   -2.1645   -4.2316    1.7086 H   0  0  0  0  0  0  0  0  0  0  0  0
   -5.7648    2.3773    1.3010 H   0  0  0  0  0  0  0  0  0  0  0  0
   -6.3374    0.9495    0.3975 H   0  0  0  0  0  0  0  0  0  0  0  0
   -6.6687    2.5816   -0.2011 H   0  0  0  0  0  0  0  0  0  0  0  0
    3.5334   -2.8825   -0.9567 H   0  0  0  0  0  0  0  0  0  0  0  0
    5.5395   -1.7872    0.0006 H   0  0  0  0  0  0  0  0  0  0  0  0
  1  7  1  0  0  0  0
  1 18  1  0  0  0  0
  2  4  1  0  0  0  0
  2  8  1  0  0  0  0
  3  6  1  0  0  0  0
  3 19  1  0  0  0  0
  3 28  1  0  0  0  0
  4  5  1  0  0  0  0
  4  7  1  0  0  0  0
  4 22  1  0  0  0  0
  5  6  1  0  0  0  0
  5 23  1  0  0  0  0
  5 24  1  0  0  0  0
  6 25  1  0  0  0  0
  6 26  1  0  0  0  0
  7 11  2  0  0  0  0
  8  9  1  0  0  0  0
  8 12  2  0  0  0  0
  9 10  1  0  0  0  0
  9 13  2  0  0  0  0
 10 14  1  0  0  0  0
 10 16  2  0  0  0  0
 11 17  1  0  0  0  0
 11 27  1  0  0  0  0
 12 15  1  0  0  0  0
 12 29  1  0  0  0  0
 13 20  1  0  0  0  0
 13 30  1  0  0  0  0
 14 15  2  0  0  0  0
 14 31  1  0  0  0  0
 15 32  1  0  0  0  0
 16 21  1  0  0  0  0
 16 33  1  0  0  0  0
 17 18  2  0  0  0  0
 17 34  1  0  0  0  0
 18 35  1  0  0  0  0
 19 36  1  0  0  0  0
 19 37  1  0  0  0  0
 19 38  1  0  0  0  0
 20 21  2  0  0  0  0
 20 39  1  0  0  0  0
 21 40  1  0  0  0  0
M  END
> <PUBCHEM_COMPOUND_CID>
122252

> <PUBCHEM_CONFORMER_RMSD>
0.8

> <PUBCHEM_CONFORMER_DIVERSEORDER>
1
143
171
154
111
109
182
28
136
149
179
162
38
97
115
34
175
81
178
173
44
181
138
94
56
158
164
129
17
137
160
108
169
180
152
25
78
98
123
48
90
74
119
117
104
59
133
135
116
82
87
118
20
2
130
122
150
22
170
61
147
159
62
106
132
107
64
72
14
79
167
42
51
140
144
16
134
77
93
85
54
157
15
23
100
146
10
35
49
68
7
57
153
126
127
165
76
43
110
70
36
3
91
12
45
141
139
73
30
50
166
5
125
120
32
174
142
37
145
84
112
8
67
161
86
66
40
33
46
24
4
114
65
55
163
88
102
53
168
155
47
121
96
124
18
9
75
101
41
26
172
95
128
63
58
6
156
151
19
105
148
11
176
131
71
113
69
39
80
60
99
31
103
89
177
21
83
52
183
13
92
29
27

> <PUBCHEM_MMFF94_PARTIAL_CHARGES>
29
1 -0.08
11 -0.15
12 -0.15
13 -0.15
14 -0.15
15 -0.15
16 -0.15
17 -0.15
18 -0.11
19 0.27
2 -0.36
20 -0.15
21 -0.15
27 0.15
28 0.36
29 0.15
3 -0.9
30 0.15
31 0.15
32 0.15
33 0.15
34 0.15
35 0.15
39 0.15
4 0.46
40 0.15
6 0.27
7 -0.14
8 0.08

> <PUBCHEM_EFFECTIVE_ROTOR_COUNT>
6

> <PUBCHEM_PHARMACOPHORE_FEATURES>
6
1 2 acceptor
1 3 cation
1 3 donor
5 1 7 11 17 18 rings
6 8 9 10 12 14 15 rings
6 9 10 13 16 20 21 rings

> <PUBCHEM_HEAVY_ATOM_COUNT>
21

> <PUBCHEM_ATOM_DEF_STEREO_COUNT>
0

> <PUBCHEM_ATOM_UDEF_STEREO_COUNT>
1

> <PUBCHEM_BOND_DEF_STEREO_COUNT>
0

> <PUBCHEM_BOND_UDEF_STEREO_COUNT>
0

> <PUBCHEM_ISOTOPIC_ATOM_COUNT>
0

> <PUBCHEM_COMPONENT_COUNT>
1

> <PUBCHEM_CACTVS_TAUTO_COUNT>
1

> <PUBCHEM_CONFORMER_ID>
0001DD8C00000001

> <PUBCHEM_MMFF94_ENERGY>
52.1547

> <PUBCHEM_FEATURE_SELFOVERLAP>
30.473

> <PUBCHEM_SHAPE_FINGERPRINT>
10366900 7 17904485456350141258
10616163 171 18194965368767520444
10906281 52 18129678395609046596
11405975 8 18409442626768677424
11578080 2 16986853860856269579
12422481 6 18048350914175460635
12500047 106 18409446998649661181
12633257 1 18263065691776953376
12930653 34 18052532463463114856
13004483 165 17910383215310843399
13135754 10 17096670844882582243
13140716 1 18411411847930951528
133893 2 15721928473724168733
13583140 156 17630318868725572480
14022347 108 18265905648891749302
14115302 16 18188220814277298908
14178342 30 18191858131627699680
14223421 5 18195528327295110378
14466204 15 18051130285574658953
15422964 175 17612319953705340587
19141452 34 18408882932089106516
19591789 44 17977382733278790797
19930381 70 17908142075326249447
20197701 30 18409165477256342385
20286276 3 18265619964493693004
20832881 197 18123470475432622117
21033648 29 18261939757405819269
21065198 57 18339641251707196320
21524375 3 18335705979991470397
221490 88 18338801247015654774
23558518 356 18044374057109105361
23559900 14 18342734131220122760
3178227 256 18264221223027570897
335352 9 18340767048930196852
34934 24 18411132516142837006
38695281 34 18127407853137823813
495365 180 17774707719496235160
5104073 3 18337941407395293672
5309563 4 17400364941108435731
59554788 248 17345483754594932574
59755656 215 17971472902168639077
6138700 20 18050290262758931063
69090 78 18411133615527688999
7399639 24 17621591048445531601
81228 2 17897160449998954935
8809292 202 18408322172917107188
9709674 26 18339640160737959079
9981440 41 17268312400754165769

> <PUBCHEM_SHAPE_MULTIPOLES>
425.17
9.49
3.86
1.03
3.33
1.45
0.23
-3.67
0.32
2.73
0.62
0.28
0.43
1.15

> <PUBCHEM_SHAPE_SELFOVERLAP>
900.936

> <PUBCHEM_SHAPE_VOLUME>
239.6

> <PUBCHEM_COORDINATE_TYPE>
2
5
10

$$$$
