3219
  -OEChem-09252021213D

 48 50  0     1  0  0  0  0  0999 V2000
    0.7175   -3.2764   -0.4311 O   0  0  0  0  0  0  0  0  0  0  0  0
    0.7825    1.2807   -0.0067 N   0  0  0  0  0  0  0  0  0  0  0  0
    4.0124    1.2558    0.5281 N   0  0  2  0  0  0  0  0  0  0  0  0
   -1.1387   -0.0767   -0.3741 N   0  0  0  0  0  0  0  0  0  0  0  0
   -1.5088    1.9358    0.4940 N   0  0  0  0  0  0  0  0  0  0  0  0
    1.3860    1.8580   -1.2111 C   0  0  0  0  0  0  0  0  0  0  0  0
    1.6254    0.9003    1.1303 C   0  0  0  0  0  0  0  0  0  0  0  0
    2.5871    2.7557   -0.9195 C   0  0  0  0  0  0  0  0  0  0  0  0
    2.9532    0.2576    0.7182 C   0  0  0  0  0  0  0  0  0  0  0  0
    3.8971    1.9854   -0.7393 C   0  0  0  0  0  0  0  0  0  0  0  0
   -0.5870    1.1011    0.0570 C   0  0  0  0  0  0  0  0  0  0  0  0
   -2.4971    0.0048   -0.2049 C   0  0  0  0  0  0  0  0  0  0  0  0
   -0.4259   -1.2133   -0.9156 C   0  0  0  0  0  0  0  0  0  0  0  0
   -2.7029    1.2700    0.3382 C   0  0  0  0  0  0  0  0  0  0  0  0
    5.3297    0.6155    0.6047 C   0  0  0  0  0  0  0  0  0  0  0  0
   -0.0094   -2.2072    0.1602 C   0  0  0  0  0  0  0  0  0  0  0  0
   -3.5319   -0.8921   -0.4723 C   0  0  0  0  0  0  0  0  0  0  0  0
   -4.0124    1.6814    0.6390 C   0  0  0  0  0  0  0  0  0  0  0  0
   -4.8288   -0.4662   -0.1669 C   0  0  0  0  0  0  0  0  0  0  0  0
   -5.0668    0.7973    0.3789 C   0  0  0  0  0  0  0  0  0  0  0  0
    1.1262   -4.2292    0.5409 C   0  0  0  0  0  0  0  0  0  0  0  0
    1.8924   -5.3384   -0.1477 C   0  0  0  0  0  0  0  0  0  0  0  0
    0.6326    2.4709   -1.7236 H   0  0  0  0  0  0  0  0  0  0  0  0
    1.6628    1.0612   -1.9108 H   0  0  0  0  0  0  0  0  0  0  0  0
    1.0832    0.1985    1.7752 H   0  0  0  0  0  0  0  0  0  0  0  0
    1.8003    1.7833    1.7592 H   0  0  0  0  0  0  0  0  0  0  0  0
    2.7217    3.4194   -1.7838 H   0  0  0  0  0  0  0  0  0  0  0  0
    2.3968    3.4083   -0.0587 H   0  0  0  0  0  0  0  0  0  0  0  0
    3.2412   -0.3921    1.5558 H   0  0  0  0  0  0  0  0  0  0  0  0
    2.8414   -0.3969   -0.1557 H   0  0  0  0  0  0  0  0  0  0  0  0
    4.0446    1.3102   -1.5930 H   0  0  0  0  0  0  0  0  0  0  0  0
    4.7069    2.7256   -0.7838 H   0  0  0  0  0  0  0  0  0  0  0  0
   -1.0644   -1.7023   -1.6605 H   0  0  0  0  0  0  0  0  0  0  0  0
    0.4462   -0.8629   -1.4755 H   0  0  0  0  0  0  0  0  0  0  0  0
    5.4646   -0.1439   -0.1741 H   0  0  0  0  0  0  0  0  0  0  0  0
    5.4718    0.1388    1.5812 H   0  0  0  0  0  0  0  0  0  0  0  0
    6.1287    1.3590    0.5059 H   0  0  0  0  0  0  0  0  0  0  0  0
    0.6143   -1.7302    0.9190 H   0  0  0  0  0  0  0  0  0  0  0  0
   -0.8998   -2.6071    0.6611 H   0  0  0  0  0  0  0  0  0  0  0  0
   -3.3522   -1.8749   -0.8930 H   0  0  0  0  0  0  0  0  0  0  0  0
   -4.2078    2.6611    1.0632 H   0  0  0  0  0  0  0  0  0  0  0  0
   -5.6667   -1.1321   -0.3576 H   0  0  0  0  0  0  0  0  0  0  0  0
   -6.0859    1.1000    0.6059 H   0  0  0  0  0  0  0  0  0  0  0  0
    1.7681   -3.7464    1.2864 H   0  0  0  0  0  0  0  0  0  0  0  0
    0.2469   -4.6459    1.0447 H   0  0  0  0  0  0  0  0  0  0  0  0
    2.2230   -6.0912    0.5732 H   0  0  0  0  0  0  0  0  0  0  0  0
    1.2692   -5.8246   -0.9056 H   0  0  0  0  0  0  0  0  0  0  0  0
    2.7691   -4.9369   -0.6666 H   0  0  0  0  0  0  0  0  0  0  0  0
  1 16  1  0  0  0  0
  1 21  1  0  0  0  0
  2  6  1  0  0  0  0
  2  7  1  0  0  0  0
  2 11  1  0  0  0  0
  3  9  1  0  0  0  0
  3 10  1  0  0  0  0
  3 15  1  0  0  0  0
  4 11  1  0  0  0  0
  4 12  1  0  0  0  0
  4 13  1  0  0  0  0
  5 11  2  0  0  0  0
  5 14  1  0  0  0  0
  6  8  1  0  0  0  0
  6 23  1  0  0  0  0
  6 24  1  0  0  0  0
  7  9  1  0  0  0  0
  7 25  1  0  0  0  0
  7 26  1  0  0  0  0
  8 10  1  0  0  0  0
  8 27  1  0  0  0  0
  8 28  1  0  0  0  0
  9 29  1  0  0  0  0
  9 30  1  0  0  0  0
 10 31  1  0  0  0  0
 10 32  1  0  0  0  0
 12 14  1  0  0  0  0
 12 17  2  0  0  0  0
 13 16  1  0  0  0  0
 13 33  1  0  0  0  0
 13 34  1  0  0  0  0
 14 18  2  0  0  0  0
 15 35  1  0  0  0  0
 15 36  1  0  0  0  0
 15 37  1  0  0  0  0
 16 38  1  0  0  0  0
 16 39  1  0  0  0  0
 17 19  1  0  0  0  0
 17 40  1  0  0  0  0
 18 20  1  0  0  0  0
 18 41  1  0  0  0  0
 19 20  2  0  0  0  0
 19 42  1  0  0  0  0
 20 43  1  0  0  0  0
 21 22  1  0  0  0  0
 21 44  1  0  0  0  0
 21 45  1  0  0  0  0
 22 46  1  0  0  0  0
 22 47  1  0  0  0  0
 22 48  1  0  0  0  0
M  END
> <PUBCHEM_COMPOUND_CID>
3219

> <PUBCHEM_CONFORMER_RMSD>
0.8

> <PUBCHEM_CONFORMER_DIVERSEORDER>
8
17
49
69
54
39
62
7
41
68
60
20
26
5
65
70
63
44
14
38
52
13
37
32
40
59
72
56
6
27
30
71
15
35
16
23
22
46
66
24
29
58
64
12
34
48
28
43
33
9
67
31
47
51
10
42
11
36
1
2
3
55
53
19
25
18
4
61
57
50
45
21

> <PUBCHEM_MMFF94_PARTIAL_CHARGES>
24
1 -0.56
10 0.27
11 0.27
12 -0.15
13 0.26
14 0.23
15 0.27
16 0.28
17 -0.15
18 -0.15
19 -0.15
2 -0.82
20 -0.15
21 0.28
3 -0.81
4 0.05
40 0.15
41 0.15
42 0.15
43 0.15
5 -0.57
6 0.37
7 0.37
9 0.27

> <PUBCHEM_EFFECTIVE_ROTOR_COUNT>
6.4

> <PUBCHEM_PHARMACOPHORE_FEATURES>
6
1 1 acceptor
1 3 cation
4 2 4 5 11 cation
5 4 5 11 12 14 rings
6 12 14 17 18 19 20 rings
7 2 3 6 7 8 9 10 rings

> <PUBCHEM_HEAVY_ATOM_COUNT>
22

> <PUBCHEM_ATOM_DEF_STEREO_COUNT>
0

> <PUBCHEM_ATOM_UDEF_STEREO_COUNT>
0

> <PUBCHEM_BOND_DEF_STEREO_COUNT>
0

> <PUBCHEM_BOND_UDEF_STEREO_COUNT>
0

> <PUBCHEM_ISOTOPIC_ATOM_COUNT>
0

> <PUBCHEM_COMPONENT_COUNT>
1

> <PUBCHEM_CACTVS_TAUTO_COUNT>
1

> <PUBCHEM_CONFORMER_ID>
00000C9300000008

> <PUBCHEM_MMFF94_ENERGY>
56.2223

> <PUBCHEM_FEATURE_SELFOVERLAP>
30.554

> <PUBCHEM_SHAPE_FINGERPRINT>
10090160 65 18409442609636248375
107951 10 18268166412196914350
11578080 2 17534901884057118493
12236239 1 18334011734930206753
12592029 89 18410300198350914401
12788726 201 17763463219968810318
12839892 36 18409441522883019531
13140716 1 18126850632681760113
138480 1 18050286964440273394
14022349 108 18269839705527304467
14251757 5 17688881151702282686
14790565 3 18338801216218206417
14866123 147 18268423727719483154
15927050 60 18342174496939964222
16752209 62 18124587845640104807
19591789 44 18194682789926549635
19784866 9 18341897376906376721
20645476 183 18046069521224578989
20739085 24 18261951847869593210
21033650 10 17557742223827706968
21421861 104 18265902345792893265
21524375 3 18272936059019835853
22849339 104 17905637701860788862
22956985 138 18263924332590814962
23366157 5 18190749635002147943
23402539 116 18131064978403186045
23559900 14 18050561851216512571
23598288 3 17756151438048482762
23728640 28 18266456705891064362
43471831 8 18412260627572780171
474 4 18408887338952294967
5104073 3 18127147282099662057
5385378 56 18340775827811844169
59755656 215 18338798918742603437
6138700 20 18340212869669668246
7364860 26 18199188391187943671
9981440 41 18409451427188439179

> <PUBCHEM_SHAPE_MULTIPOLES>
426.96
9.07
4.9
0.97
2.66
10.16
-0.05
-4.98
1.26
-5.01
-0.43
-0.41
-0.28
-0.91

> <PUBCHEM_SHAPE_SELFOVERLAP>
887.733

> <PUBCHEM_SHAPE_VOLUME>
243

> <PUBCHEM_COORDINATE_TYPE>
2
5
10

$$$$
