3222
  -OEChem-09252021213D

 55 56  0     1  0  0  0  0  0999 V2000
   -2.5802    1.8789   -0.7950 O   0  0  0  0  0  0  0  0  0  0  0  0
   -6.2717    0.7845   -1.0839 O   0  0  0  0  0  0  0  0  0  0  0  0
   -5.4005    0.6064    1.0222 O   0  0  0  0  0  0  0  0  0  0  0  0
    3.4173    2.6334    0.3286 O   0  0  0  0  0  0  0  0  0  0  0  0
    1.9268    3.0064   -1.3898 O   0  0  0  0  0  0  0  0  0  0  0  0
   -3.0657   -0.2386    0.0033 N   0  0  0  0  0  0  0  0  0  0  0  0
   -0.0246    1.6596   -0.1042 N   0  0  0  0  0  0  0  0  0  0  0  0
   -4.2645   -0.4478   -0.7979 C   0  0  1  0  0  0  0  0  0  0  0  0
   -4.5414   -1.9433   -0.6974 C   0  0  0  0  0  0  0  0  0  0  0  0
   -3.9700   -2.3192    0.6676 C   0  0  0  0  0  0  0  0  0  0  0  0
   -2.7451   -1.4256    0.7917 C   0  0  0  0  0  0  0  0  0  0  0  0
   -2.2764    0.8944   -0.1193 C   0  0  0  0  0  0  0  0  0  0  0  0
   -0.9814    0.8706    0.6529 C   0  0  2  0  0  0  0  0  0  0  0  0
   -5.3598    0.3642   -0.1746 C   0  0  0  0  0  0  0  0  0  0  0  0
    1.2731    1.6893    0.5596 C   0  0  1  0  0  0  0  0  0  0  0  0
    1.8508    0.2765    0.7417 C   0  0  0  0  0  0  0  0  0  0  0  0
   -1.1929    1.4511    2.0367 C   0  0  0  0  0  0  0  0  0  0  0  0
    2.1062   -0.5001   -0.5579 C   0  0  0  0  0  0  0  0  0  0  0  0
    2.2104    2.5168   -0.3042 C   0  0  0  0  0  0  0  0  0  0  0  0
    2.7298   -1.8560   -0.3432 C   0  0  0  0  0  0  0  0  0  0  0  0
    4.1114   -1.9749   -0.3244 C   0  0  0  0  0  0  0  0  0  0  0  0
    1.9118   -2.9620   -0.1674 C   0  0  0  0  0  0  0  0  0  0  0  0
    4.4073    3.3989   -0.3655 C   0  0  0  0  0  0  0  0  0  0  0  0
    4.6885   -3.2291   -0.1255 C   0  0  0  0  0  0  0  0  0  0  0  0
    2.4890   -4.2162    0.0316 C   0  0  0  0  0  0  0  0  0  0  0  0
    3.8773   -4.3497    0.0526 C   0  0  0  0  0  0  0  0  0  0  0  0
    5.6747    3.4318    0.4616 C   0  0  0  0  0  0  0  0  0  0  0  0
   -4.0880   -0.1071   -1.8235 H   0  0  0  0  0  0  0  0  0  0  0  0
   -5.6006   -2.2022   -0.7881 H   0  0  0  0  0  0  0  0  0  0  0  0
   -3.9880   -2.4762   -1.4803 H   0  0  0  0  0  0  0  0  0  0  0  0
   -3.7247   -3.3818    0.7478 H   0  0  0  0  0  0  0  0  0  0  0  0
   -4.6940   -2.0787    1.4551 H   0  0  0  0  0  0  0  0  0  0  0  0
   -1.8741   -1.9118    0.3385 H   0  0  0  0  0  0  0  0  0  0  0  0
   -2.5184   -1.1683    1.8291 H   0  0  0  0  0  0  0  0  0  0  0  0
   -0.6474   -0.1639    0.7166 H   0  0  0  0  0  0  0  0  0  0  0  0
    1.2137    2.2125    1.5210 H   0  0  0  0  0  0  0  0  0  0  0  0
   -0.3686    2.6153   -0.2041 H   0  0  0  0  0  0  0  0  0  0  0  0
    2.8148    0.3700    1.2629 H   0  0  0  0  0  0  0  0  0  0  0  0
    1.2490   -0.3249    1.4325 H   0  0  0  0  0  0  0  0  0  0  0  0
   -2.0897    1.0349    2.5093 H   0  0  0  0  0  0  0  0  0  0  0  0
   -0.3561    1.2389    2.7097 H   0  0  0  0  0  0  0  0  0  0  0  0
   -1.3425    2.5373    2.0052 H   0  0  0  0  0  0  0  0  0  0  0  0
    1.1663   -0.6289   -1.1098 H   0  0  0  0  0  0  0  0  0  0  0  0
    2.7560    0.0779   -1.2271 H   0  0  0  0  0  0  0  0  0  0  0  0
   -6.9849    1.3154   -0.6694 H   0  0  0  0  0  0  0  0  0  0  0  0
    4.7515   -1.1076   -0.4595 H   0  0  0  0  0  0  0  0  0  0  0  0
    0.8296   -2.8674   -0.1793 H   0  0  0  0  0  0  0  0  0  0  0  0
    4.0387    4.4192   -0.5192 H   0  0  0  0  0  0  0  0  0  0  0  0
    4.6115    2.9352   -1.3371 H   0  0  0  0  0  0  0  0  0  0  0  0
    5.7695   -3.3331   -0.1084 H   0  0  0  0  0  0  0  0  0  0  0  0
    1.8574   -5.0887    0.1711 H   0  0  0  0  0  0  0  0  0  0  0  0
    4.3266   -5.3262    0.2080 H   0  0  0  0  0  0  0  0  0  0  0  0
    6.0449    2.4165    0.6392 H   0  0  0  0  0  0  0  0  0  0  0  0
    5.4824    3.8761    1.4438 H   0  0  0  0  0  0  0  0  0  0  0  0
    6.4551    4.0096   -0.0411 H   0  0  0  0  0  0  0  0  0  0  0  0
  1 12  2  0  0  0  0
  2 14  1  0  0  0  0
  2 45  1  0  0  0  0
  3 14  2  0  0  0  0
  4 19  1  0  0  0  0
  4 23  1  0  0  0  0
  5 19  2  0  0  0  0
  6  8  1  0  0  0  0
  6 11  1  0  0  0  0
  6 12  1  0  0  0  0
  7 13  1  0  0  0  0
  7 15  1  0  0  0  0
  7 37  1  0  0  0  0
  8  9  1  0  0  0  0
  8 14  1  0  0  0  0
  8 28  1  0  0  0  0
  9 10  1  0  0  0  0
  9 29  1  0  0  0  0
  9 30  1  0  0  0  0
 10 11  1  0  0  0  0
 10 31  1  0  0  0  0
 10 32  1  0  0  0  0
 11 33  1  0  0  0  0
 11 34  1  0  0  0  0
 12 13  1  0  0  0  0
 13 17  1  0  0  0  0
 13 35  1  0  0  0  0
 15 16  1  0  0  0  0
 15 19  1  0  0  0  0
 15 36  1  0  0  0  0
 16 18  1  0  0  0  0
 16 38  1  0  0  0  0
 16 39  1  0  0  0  0
 17 40  1  0  0  0  0
 17 41  1  0  0  0  0
 17 42  1  0  0  0  0
 18 20  1  0  0  0  0
 18 43  1  0  0  0  0
 18 44  1  0  0  0  0
 20 21  2  0  0  0  0
 20 22  1  0  0  0  0
 21 24  1  0  0  0  0
 21 46  1  0  0  0  0
 22 25  2  0  0  0  0
 22 47  1  0  0  0  0
 23 27  1  0  0  0  0
 23 48  1  0  0  0  0
 23 49  1  0  0  0  0
 24 26  2  0  0  0  0
 24 50  1  0  0  0  0
 25 26  1  0  0  0  0
 25 51  1  0  0  0  0
 26 52  1  0  0  0  0
 27 53  1  0  0  0  0
 27 54  1  0  0  0  0
 27 55  1  0  0  0  0
M  END
> <PUBCHEM_COMPOUND_CID>
3222

> <PUBCHEM_CONFORMER_RMSD>
1

> <PUBCHEM_CONFORMER_DIVERSEORDER>
17
117
187
96
137
72
68
39
2
186
140
152
147
139
20
130
11
92
106
149
16
170
174
108
182
169
27
29
59
83
5
44
188
168
184
73
122
8
123
113
128
162
79
69
125
3
56
49
179
62
57
24
183
40
30
101
118
88
165
60
58
71
61
76
91
90
7
158
66
119
4
185
190
94
143
177
99
115
153
67
95
42
157
135
192
120
22
34
77
53
85
131
146
171
172
21
80
75
43
144
111
50
32
98
100
36
121
138
41
129
175
48
9
133
132
134
104
93
103
63
35
127
173
167
26
155
54
89
33
19
124
112
15
160
102
181
176
74
116
78
151
109
23
161
10
114
12
166
64
84
86
150
163
154
65
189
110
105
159
51
70
13
55
25
178
142
87
37
145
107
31
28
191
126
180
136
6
164
141
38
14
46
1
45
148
47
18
156
52
81
97
82

> <PUBCHEM_MMFF94_PARTIAL_CHARGES>
29
1 -0.57
11 0.3
12 0.57
13 0.33
14 0.66
15 0.33
18 0.14
19 0.66
2 -0.65
20 -0.14
21 -0.15
22 -0.15
23 0.28
24 -0.15
25 -0.15
26 -0.15
3 -0.57
37 0.36
4 -0.43
45 0.5
46 0.15
47 0.15
5 -0.57
50 0.15
51 0.15
52 0.15
6 -0.66
7 -0.9
8 0.36

> <PUBCHEM_EFFECTIVE_ROTOR_COUNT>
12

> <PUBCHEM_PHARMACOPHORE_FEATURES>
9
1 1 acceptor
1 2 acceptor
1 3 acceptor
1 5 acceptor
1 7 cation
1 7 donor
3 2 3 14 anion
5 6 8 9 10 11 rings
6 20 21 22 24 25 26 rings

> <PUBCHEM_HEAVY_ATOM_COUNT>
27

> <PUBCHEM_ATOM_DEF_STEREO_COUNT>
0

> <PUBCHEM_ATOM_UDEF_STEREO_COUNT>
3

> <PUBCHEM_BOND_DEF_STEREO_COUNT>
0

> <PUBCHEM_BOND_UDEF_STEREO_COUNT>
0

> <PUBCHEM_ISOTOPIC_ATOM_COUNT>
0

> <PUBCHEM_COMPONENT_COUNT>
1

> <PUBCHEM_CACTVS_TAUTO_COUNT>
1

> <PUBCHEM_CONFORMER_ID>
00000C9600000011

> <PUBCHEM_MMFF94_ENERGY>
54.3064

> <PUBCHEM_FEATURE_SELFOVERLAP>
45.726

> <PUBCHEM_SHAPE_FINGERPRINT>
11056379 131 17187294466145558846
11135926 11 18411416258308710485
11136131 41 18263348348339857650
11719270 70 18339353188862505568
12107183 9 18055081956630211393
12553582 1 17908161884079031950
12788726 201 17202782435778413961
12969540 37 18336263445250568886
13052359 8 17763185039901447600
13533116 47 18272929436755141921
138480 1 18338518539072178254
13911987 19 17975710698522310060
13968360 50 18338228392741165268
14394314 77 17832705669334404906
14790565 3 17906171003602301924
14863182 85 18263649627136235972
14866123 147 17837212572181886033
15352361 1 18267584606815252023
15927050 60 18126004004222792062
20600515 1 17409374975289420724
21054139 6 17984135139154112853
23559900 14 18410286999985082859
3421961 26 18411417276458149798
38695281 34 18194118745120276312
4017518 198 18269000959572592796
4280585 95 18191296075449573314
4403749 210 17904753737161821704
46194498 28 17603876576039224382
463206 1 18118413851411170523
563151 97 18341064002869887224
57527295 17 17988635363907632249
59755656 215 18409732893565016236
6669772 16 18198348541041404780
9709674 26 18335138730586024683
9981440 41 18120376716074074866

> <PUBCHEM_SHAPE_MULTIPOLES>
516.34
12.83
5.68
1.08
10.32
2.61
0.23
0.13
-1.54
-11.84
-0.25
0.69
-0.46
0.16

> <PUBCHEM_SHAPE_SELFOVERLAP>
1063.506

> <PUBCHEM_SHAPE_VOLUME>
296.2

> <PUBCHEM_COORDINATE_TYPE>
2
5
10

$$$$
