3691183
  -OEChem-09252021213D

 49 50  0     1  0  0  0  0  0999 V2000
   -1.5598   -0.9577   -1.3035 O   0  0  0  0  0  0  0  0  0  0  0  0
   -4.5032   -3.2403   -0.3274 O   0  0  0  0  0  0  0  0  0  0  0  0
   -5.1582   -1.2131   -1.1381 O   0  0  0  0  0  0  0  0  0  0  0  0
    0.9122    2.5025    1.8351 O   0  0  0  0  0  0  0  0  0  0  0  0
    1.0064    3.5239   -0.1864 O   0  0  0  0  0  0  0  0  0  0  0  0
   -3.0762   -0.0633    0.1987 N   0  0  0  0  0  0  0  0  0  0  0  0
   -0.1064    1.2658   -1.3100 N   0  0  0  0  0  0  0  0  0  0  0  0
   -3.5874   -1.3340    0.6958 C   0  0  1  0  0  0  0  0  0  0  0  0
   -4.3437   -0.9754    1.9697 C   0  0  0  0  0  0  0  0  0  0  0  0
   -4.8188    0.4522    1.7105 C   0  0  0  0  0  0  0  0  0  0  0  0
   -3.6761    1.0613    0.9122 C   0  0  0  0  0  0  0  0  0  0  0  0
   -2.0412    0.0148   -0.7200 C   0  0  0  0  0  0  0  0  0  0  0  0
   -1.5177    1.4024   -0.9924 C   0  0  2  0  0  0  0  0  0  0  0  0
   -4.5008   -1.8852   -0.3574 C   0  0  0  0  0  0  0  0  0  0  0  0
    0.6914    1.1111   -0.0996 C   0  0  1  0  0  0  0  0  0  0  0  0
    2.0345    0.4600   -0.4586 C   0  0  0  0  0  0  0  0  0  0  0  0
   -2.2781    2.0258   -2.1455 C   0  0  0  0  0  0  0  0  0  0  0  0
    2.9662    0.2198    0.7396 C   0  0  0  0  0  0  0  0  0  0  0  0
    0.8936    2.5010    0.4778 C   0  0  0  0  0  0  0  0  0  0  0  0
    4.2538   -0.4894    0.3987 C   0  0  0  0  0  0  0  0  0  0  0  0
    4.3153   -1.8824    0.4419 C   0  0  0  0  0  0  0  0  0  0  0  0
    5.3824    0.2477    0.0399 C   0  0  0  0  0  0  0  0  0  0  0  0
    5.5054   -2.5381    0.1266 C   0  0  0  0  0  0  0  0  0  0  0  0
    6.5725   -0.4082   -0.2756 C   0  0  0  0  0  0  0  0  0  0  0  0
    6.6338   -1.8011   -0.2322 C   0  0  0  0  0  0  0  0  0  0  0  0
   -2.7539   -2.0236    0.8666 H   0  0  0  0  0  0  0  0  0  0  0  0
   -5.1727   -1.6528    2.1952 H   0  0  0  0  0  0  0  0  0  0  0  0
   -3.6546   -0.9779    2.8230 H   0  0  0  0  0  0  0  0  0  0  0  0
   -5.7342    0.4373    1.1072 H   0  0  0  0  0  0  0  0  0  0  0  0
   -5.0296    1.0041    2.6308 H   0  0  0  0  0  0  0  0  0  0  0  0
   -4.0175    1.8374    0.2239 H   0  0  0  0  0  0  0  0  0  0  0  0
   -2.9191    1.4796    1.5847 H   0  0  0  0  0  0  0  0  0  0  0  0
   -1.6414    2.0614   -0.1289 H   0  0  0  0  0  0  0  0  0  0  0  0
    0.1824    0.4812    0.6403 H   0  0  0  0  0  0  0  0  0  0  0  0
    0.2293    2.0580   -1.8566 H   0  0  0  0  0  0  0  0  0  0  0  0
    1.8435   -0.5014   -0.9549 H   0  0  0  0  0  0  0  0  0  0  0  0
    2.5661    1.0830   -1.1917 H   0  0  0  0  0  0  0  0  0  0  0  0
   -2.1653    1.4380   -3.0645 H   0  0  0  0  0  0  0  0  0  0  0  0
   -3.3513    2.0859   -1.9393 H   0  0  0  0  0  0  0  0  0  0  0  0
   -1.9202    3.0408   -2.3508 H   0  0  0  0  0  0  0  0  0  0  0  0
    2.4329   -0.3596    1.5048 H   0  0  0  0  0  0  0  0  0  0  0  0
    3.2149    1.1750    1.2187 H   0  0  0  0  0  0  0  0  0  0  0  0
   -5.0970   -3.6208   -1.0092 H   0  0  0  0  0  0  0  0  0  0  0  0
    3.4422   -2.4675    0.7179 H   0  0  0  0  0  0  0  0  0  0  0  0
    5.3462    1.3332    0.0004 H   0  0  0  0  0  0  0  0  0  0  0  0
    1.0327    3.4058    2.1982 H   0  0  0  0  0  0  0  0  0  0  0  0
    5.5531   -3.6226    0.1598 H   0  0  0  0  0  0  0  0  0  0  0  0
    7.4511    0.1655   -0.5556 H   0  0  0  0  0  0  0  0  0  0  0  0
    7.5603   -2.3117   -0.4781 H   0  0  0  0  0  0  0  0  0  0  0  0
  1 12  2  0  0  0  0
  2 14  1  0  0  0  0
  2 43  1  0  0  0  0
  3 14  2  0  0  0  0
  4 19  1  0  0  0  0
  4 46  1  0  0  0  0
  5 19  2  0  0  0  0
  6  8  1  0  0  0  0
  6 11  1  0  0  0  0
  6 12  1  0  0  0  0
  7 13  1  0  0  0  0
  7 15  1  0  0  0  0
  7 35  1  0  0  0  0
  8  9  1  0  0  0  0
  8 14  1  0  0  0  0
  8 26  1  0  0  0  0
  9 10  1  0  0  0  0
  9 27  1  0  0  0  0
  9 28  1  0  0  0  0
 10 11  1  0  0  0  0
 10 29  1  0  0  0  0
 10 30  1  0  0  0  0
 11 31  1  0  0  0  0
 11 32  1  0  0  0  0
 12 13  1  0  0  0  0
 13 17  1  0  0  0  0
 13 33  1  0  0  0  0
 15 16  1  0  0  0  0
 15 19  1  0  0  0  0
 15 34  1  0  0  0  0
 16 18  1  0  0  0  0
 16 36  1  0  0  0  0
 16 37  1  0  0  0  0
 17 38  1  0  0  0  0
 17 39  1  0  0  0  0
 17 40  1  0  0  0  0
 18 20  1  0  0  0  0
 18 41  1  0  0  0  0
 18 42  1  0  0  0  0
 20 21  2  0  0  0  0
 20 22  1  0  0  0  0
 21 23  1  0  0  0  0
 21 44  1  0  0  0  0
 22 24  2  0  0  0  0
 22 45  1  0  0  0  0
 23 25  2  0  0  0  0
 23 47  1  0  0  0  0
 24 25  1  0  0  0  0
 24 48  1  0  0  0  0
 25 49  1  0  0  0  0
M  END
> <PUBCHEM_COMPOUND_CID>
3691183

> <PUBCHEM_CONFORMER_RMSD>
1

> <PUBCHEM_CONFORMER_DIVERSEORDER>
1
109
291
116
229
4
385
295
133
67
214
362
209
28
104
267
306
57
388
413
287
280
175
228
160
386
345
206
94
62
373
15
111
245
192
351
366
150
191
372
212
348
321
159
74
77
231
186
399
65
327
70
312
299
300
406
151
257
2
81
387
376
311
383
407
114
51
374
381
177
296
3
405
210
319
17
412
41
237
30
188
272
126
273
112
236
165
370
194
211
400
179
32
410
356
223
82
42
213
415
48
284
241
98
240
250
123
127
222
124
142
325
283
68
380
14
49
303
248
347
187
35
60
396
255
64
398
355
8
317
27
190
149
375
43
243
363
166
40
201
92
182
128
298
148
384
341
282
96
309
99
120
364
397
39
135
360
91
178
268
310
181
324
315
193
138
338
118
278
233
316
197
134
334
152
414
378
154
23
346
244
263
88
290
10
105
390
259
46
173
226
358
139
125
196
36
95
202
389
5
130
249
365
102
301
252
90
76
335
336
59
246
69
131
101
203
55
168
12
7
83
342
29
54
331
207
146
26
340
200
293
33
271
392
215
332
140
115
71
61
329
254
208
361
379
297
260
167
86
78
258
292
195
218
288
122
6
163
402
44
352
185
47
264
84
265
117
281
108
253
234
247
371
97
323
395
158
145
308
141
261
34
305
50
119
225
320
230
172
242
251
344
350
162
275
330
314
326
144
137
85
227
322
354
66
232
199
220
107
113
24
409
416
198
129
403
52
393
333
368
219
89
22
391
63
204
353
103
106
153
183
235
266
19
401
31
79
143
328
11
170
155
277
274
343
404
25
53
93
189
13
279
367
349
87
9
164
224
132
369
276
269
157
174
75
72
21
304
411
394
100
302
221
38
313
147
58
377
171
359
20
156
239
238
161
289
205
337
180
307
216
18
73
80
16
184
110
176
169
318
286
217
37
45
56
294
121
262
408
270
136
382
256
285
339
357

> <PUBCHEM_MMFF94_PARTIAL_CHARGES>
29
1 -0.57
11 0.3
12 0.57
13 0.33
14 0.66
15 0.33
18 0.14
19 0.66
2 -0.65
20 -0.14
21 -0.15
22 -0.15
23 -0.15
24 -0.15
25 -0.15
3 -0.57
35 0.36
4 -0.65
43 0.5
44 0.15
45 0.15
46 0.5
47 0.15
48 0.15
49 0.15
5 -0.57
6 -0.66
7 -0.9
8 0.36

> <PUBCHEM_EFFECTIVE_ROTOR_COUNT>
10

> <PUBCHEM_PHARMACOPHORE_FEATURES>
11
1 1 acceptor
1 2 acceptor
1 3 acceptor
1 4 acceptor
1 5 acceptor
1 7 cation
1 7 donor
3 2 3 14 anion
3 4 5 19 anion
5 6 8 9 10 11 rings
6 20 21 22 23 24 25 rings

> <PUBCHEM_HEAVY_ATOM_COUNT>
25

> <PUBCHEM_ATOM_DEF_STEREO_COUNT>
0

> <PUBCHEM_ATOM_UDEF_STEREO_COUNT>
3

> <PUBCHEM_BOND_DEF_STEREO_COUNT>
0

> <PUBCHEM_BOND_UDEF_STEREO_COUNT>
0

> <PUBCHEM_ISOTOPIC_ATOM_COUNT>
0

> <PUBCHEM_COMPONENT_COUNT>
1

> <PUBCHEM_CACTVS_TAUTO_COUNT>
1

> <PUBCHEM_CONFORMER_ID>
003852AF00000001

> <PUBCHEM_MMFF94_ENERGY>
50.3681

> <PUBCHEM_FEATURE_SELFOVERLAP>
55.937

> <PUBCHEM_SHAPE_FINGERPRINT>
10928967 22 18337376189446477706
11045515 52 17968659311953272252
11089746 13 10159693569891415702
12107183 9 18342469101678548241
12422481 6 17131276736352803734
12596602 18 17489588991379379914
12633257 1 18129958852936646241
12760667 363 18334577927878705607
13103583 49 17988372506675140385
13533116 47 18197214974238331707
13544653 18 18334858303475683340
13914758 101 18272928303052528733
13941219 33 18340774723651691107
14251764 30 18341892983355149986
14420673 8 18271533004673292306
14950920 106 17489307524617921163
14951699 99 11887085775312505202
15188451 53 17418085564287193375
16110190 28 18343025497295259514
17492 89 18050005790538736283
17780758 139 18131632257471995659
1813 80 18342468036495062060
20101258 96 17676210147665230629
22950370 63 18412266129863573872
23522609 53 18195277522991902396
23559900 14 18338223990399777793
2838139 119 9367347024809339858
312425 54 18273497870680564042
314194 84 18335146431282901938
3737641 26 18265901255019568450
4058900 60 17107051024570316365
437815 12 18408880729098314573
484985 159 18268426819921044665
5104073 3 17774730873664779081
5486654 36 18411425041859572875
6328613 192 11599707516545995146
7970288 3 18411697682236735638

> <PUBCHEM_SHAPE_MULTIPOLES>
475.18
15.37
3.14
1.53
16.25
0.5
0.1
-12.55
1.46
-0.64
-0.19
-2.19
0.53
0.23

> <PUBCHEM_SHAPE_SELFOVERLAP>
985.154

> <PUBCHEM_SHAPE_VOLUME>
270.5

> <PUBCHEM_COORDINATE_TYPE>
2
5
10

$$$$
