43103
  -OEChem-09252021223D

 48 50  0     1  0  0  0  0  0999 V2000
    0.2838    1.5015   -0.3082 O   0  0  0  0  0  0  0  0  0  0  0  0
    5.6222    0.1575   -0.0335 O   0  0  0  0  0  0  0  0  0  0  0  0
   -3.8610    2.1205   -0.0120 N   0  0  1  0  0  0  0  0  0  0  0  0
   -1.9313    0.7634   -0.8150 C   0  0  1  0  0  0  0  0  0  0  0  0
   -2.0402   -0.1398    0.4399 C   0  0  1  0  0  0  0  0  0  0  0  0
   -3.4733   -0.0953    0.9996 C   0  0  0  0  0  0  0  0  0  0  0  0
   -2.4802    2.1727   -0.5113 C   0  0  0  0  0  0  0  0  0  0  0  0
   -3.9423    1.3410    1.2286 C   0  0  0  0  0  0  0  0  0  0  0  0
   -0.4865    0.8769   -1.3155 C   0  0  0  0  0  0  0  0  0  0  0  0
   -1.6085   -1.5774    0.2013 C   0  0  0  0  0  0  0  0  0  0  0  0
   -4.3792    3.4722    0.2003 C   0  0  0  0  0  0  0  0  0  0  0  0
   -0.9749   -2.2874    1.2176 C   0  0  0  0  0  0  0  0  0  0  0  0
   -1.8495   -2.1770   -1.0319 C   0  0  0  0  0  0  0  0  0  0  0  0
   -0.5788   -3.6068    0.9989 C   0  0  0  0  0  0  0  0  0  0  0  0
   -1.4536   -3.4965   -1.2504 C   0  0  0  0  0  0  0  0  0  0  0  0
    1.6147    1.1667   -0.2400 C   0  0  0  0  0  0  0  0  0  0  0  0
   -0.8182   -4.2114   -0.2350 C   0  0  0  0  0  0  0  0  0  0  0  0
    2.2666    1.1998    0.9855 C   0  0  0  0  0  0  0  0  0  0  0  0
    2.2888    0.8001   -1.3972 C   0  0  0  0  0  0  0  0  0  0  0  0
    3.6177    0.8603    1.0551 C   0  0  0  0  0  0  0  0  0  0  0  0
    3.6399    0.4605   -1.3274 C   0  0  0  0  0  0  0  0  0  0  0  0
    4.3043    0.4906   -0.1013 C   0  0  0  0  0  0  0  0  0  0  0  0
    6.2394    0.2078    1.2519 C   0  0  0  0  0  0  0  0  0  0  0  0
   -2.5458    0.3650   -1.6314 H   0  0  0  0  0  0  0  0  0  0  0  0
   -1.3782    0.2810    1.2108 H   0  0  0  0  0  0  0  0  0  0  0  0
   -3.5265   -0.6464    1.9470 H   0  0  0  0  0  0  0  0  0  0  0  0
   -4.1642   -0.5983    0.3092 H   0  0  0  0  0  0  0  0  0  0  0  0
   -1.8410    2.6912    0.2157 H   0  0  0  0  0  0  0  0  0  0  0  0
   -2.4530    2.7601   -1.4383 H   0  0  0  0  0  0  0  0  0  0  0  0
   -4.9810    1.3075    1.5791 H   0  0  0  0  0  0  0  0  0  0  0  0
   -3.3448    1.8036    2.0252 H   0  0  0  0  0  0  0  0  0  0  0  0
   -0.4591    1.4988   -2.2188 H   0  0  0  0  0  0  0  0  0  0  0  0
   -0.1094   -0.1180   -1.5760 H   0  0  0  0  0  0  0  0  0  0  0  0
   -5.4246    3.4364    0.5267 H   0  0  0  0  0  0  0  0  0  0  0  0
   -4.3632    4.0420   -0.7355 H   0  0  0  0  0  0  0  0  0  0  0  0
   -3.8023    4.0246    0.9508 H   0  0  0  0  0  0  0  0  0  0  0  0
   -0.7841   -1.8279    2.1836 H   0  0  0  0  0  0  0  0  0  0  0  0
   -2.3643   -1.6707   -1.8402 H   0  0  0  0  0  0  0  0  0  0  0  0
   -0.0847   -4.1637    1.7897 H   0  0  0  0  0  0  0  0  0  0  0  0
   -1.6454   -3.9700   -2.2089 H   0  0  0  0  0  0  0  0  0  0  0  0
   -0.5113   -5.2392   -0.4047 H   0  0  0  0  0  0  0  0  0  0  0  0
    1.7331    1.4865    1.8873 H   0  0  0  0  0  0  0  0  0  0  0  0
    1.8163    0.7929   -2.3744 H   0  0  0  0  0  0  0  0  0  0  0  0
    4.0717    0.9045    2.0392 H   0  0  0  0  0  0  0  0  0  0  0  0
    4.1717    0.1791   -2.2323 H   0  0  0  0  0  0  0  0  0  0  0  0
    7.2855   -0.0874    1.1199 H   0  0  0  0  0  0  0  0  0  0  0  0
    5.7888   -0.5125    1.9431 H   0  0  0  0  0  0  0  0  0  0  0  0
    6.2431    1.2255    1.6569 H   0  0  0  0  0  0  0  0  0  0  0  0
  1  9  1  0  0  0  0
  1 16  1  0  0  0  0
  2 22  1  0  0  0  0
  2 23  1  0  0  0  0
  3  7  1  0  0  0  0
  3  8  1  0  0  0  0
  3 11  1  0  0  0  0
  4  5  1  0  0  0  0
  4  7  1  0  0  0  0
  4  9  1  0  0  0  0
  4 24  1  0  0  0  0
  5  6  1  0  0  0  0
  5 10  1  0  0  0  0
  5 25  1  0  0  0  0
  6  8  1  0  0  0  0
  6 26  1  0  0  0  0
  6 27  1  0  0  0  0
  7 28  1  0  0  0  0
  7 29  1  0  0  0  0
  8 30  1  0  0  0  0
  8 31  1  0  0  0  0
  9 32  1  0  0  0  0
  9 33  1  0  0  0  0
 10 12  2  0  0  0  0
 10 13  1  0  0  0  0
 11 34  1  0  0  0  0
 11 35  1  0  0  0  0
 11 36  1  0  0  0  0
 12 14  1  0  0  0  0
 12 37  1  0  0  0  0
 13 15  2  0  0  0  0
 13 38  1  0  0  0  0
 14 17  2  0  0  0  0
 14 39  1  0  0  0  0
 15 17  1  0  0  0  0
 15 40  1  0  0  0  0
 16 18  2  0  0  0  0
 16 19  1  0  0  0  0
 17 41  1  0  0  0  0
 18 20  1  0  0  0  0
 18 42  1  0  0  0  0
 19 21  2  0  0  0  0
 19 43  1  0  0  0  0
 20 22  2  0  0  0  0
 20 44  1  0  0  0  0
 21 22  1  0  0  0  0
 21 45  1  0  0  0  0
 23 46  1  0  0  0  0
 23 47  1  0  0  0  0
 23 48  1  0  0  0  0
M  END
> <PUBCHEM_COMPOUND_CID>
43103

> <PUBCHEM_CONFORMER_RMSD>
0.8

> <PUBCHEM_CONFORMER_DIVERSEORDER>
12
16
84
65
107
116
95
75
56
14
61
44
11
60
36
38
10
92
37
85
9
23
108
113
78
43
114
69
66
71
45
91
39
35
70
106
4
80
105
27
100
101
94
93
8
41
68
30
77
40
86
58
63
1
72
20
88
31
50
3
111
110
97
26
118
82
25
89
87
64
83
5
59
49
34
112
109
90
47
21
55
42
67
104
117
53
99
74
81
102
98
52
96
13
103
33
46
2
28
6
62
115
19
7
76
73
51
57
15
79
32
54
48
24
18
17
29
22

> <PUBCHEM_MMFF94_PARTIAL_CHARGES>
30
1 -0.36
10 -0.14
11 0.27
12 -0.15
13 -0.15
14 -0.15
15 -0.15
16 0.08
17 -0.15
18 -0.15
19 -0.15
2 -0.36
20 -0.15
21 -0.15
22 0.08
23 0.28
3 -0.81
37 0.15
38 0.15
39 0.15
40 0.15
41 0.15
42 0.15
43 0.15
44 0.15
45 0.15
5 0.14
7 0.27
8 0.27
9 0.28

> <PUBCHEM_EFFECTIVE_ROTOR_COUNT>
6.2

> <PUBCHEM_PHARMACOPHORE_FEATURES>
6
1 1 acceptor
1 2 acceptor
1 3 cation
6 10 12 13 14 15 17 rings
6 16 18 19 20 21 22 rings
6 3 4 5 6 7 8 rings

> <PUBCHEM_HEAVY_ATOM_COUNT>
23

> <PUBCHEM_ATOM_DEF_STEREO_COUNT>
0

> <PUBCHEM_ATOM_UDEF_STEREO_COUNT>
2

> <PUBCHEM_BOND_DEF_STEREO_COUNT>
0

> <PUBCHEM_BOND_UDEF_STEREO_COUNT>
0

> <PUBCHEM_ISOTOPIC_ATOM_COUNT>
0

> <PUBCHEM_COMPONENT_COUNT>
1

> <PUBCHEM_CACTVS_TAUTO_COUNT>
1

> <PUBCHEM_CONFORMER_ID>
0000A85F0000000C

> <PUBCHEM_MMFF94_ENERGY>
76.0602

> <PUBCHEM_FEATURE_SELFOVERLAP>
30.446

> <PUBCHEM_SHAPE_FINGERPRINT>
11405975 8 18411132585094844840
11552529 35 18055913436285786826
11720765 8 17050464049420247511
12363563 72 17761209212758180158
12422481 6 17824254896104064338
12500047 106 18413670214485881636
12553582 1 17472716091697129903
12633257 1 18057622033988998672
12788726 201 18120383304706646967
13004483 165 17767964594998228831
13140716 1 17903924700998680411
133893 2 17684340899208733999
13540713 4 17682414546780503969
14251757 5 18266481930213024756
14866123 147 18410008875062368315
15042514 8 18192720162140662971
15420108 30 18267860589197996023
16752209 62 18262225725001677933
17913733 40 18126305064403061329
20028762 73 18270409399259934055
20554085 129 18127672856388200361
21033648 29 18272360949814358505
212916 134 18341605980286336393
22956985 138 17680437650052788347
23419403 2 17101987808188854143
23728640 28 18336551615564589131
3027735 51 18271801384442794407
3298306 158 18193564371715379031
3411729 13 17973729073995157553
469060 322 15974930587795577848
508706 21 18271257117897615862
5265222 85 18265353823220116790
532947 4 18125727781426283079
5385378 56 18051422773279929393
5924683 9 18199460146579804078
59755656 520 18341322315161005229
602551 16 18410574028818639792
7226269 152 18202563947867835304
81228 2 18123184873366711045
9862522 239 18260824857025545069
9953998 17 18337377306949754144
9981440 41 18266466412754777369

> <PUBCHEM_SHAPE_MULTIPOLES>
456.61
9.7
4.44
1.42
14.52
4.73
0.06
-6.92
-2.87
-6.07
0.15
0.37
0.23
-0.41

> <PUBCHEM_SHAPE_SELFOVERLAP>
966.023

> <PUBCHEM_SHAPE_VOLUME>
255.2

> <PUBCHEM_COORDINATE_TYPE>
2
5
10

$$$$
