68917
  -OEChem-09252021223D

 47 50  0     0  0  0  0  0  0999 V2000
   -3.6838   -2.0262    0.8877 F   0  0  0  0  0  0  0  0  0  0  0  0
   -7.5936    0.4451   -0.0965 F   0  0  0  0  0  0  0  0  0  0  0  0
    4.4307    4.1662    0.4701 O   0  0  0  0  0  0  0  0  0  0  0  0
    4.2863   -4.1925   -0.4419 O   0  0  0  0  0  0  0  0  0  0  0  0
   -1.2314    1.1350    0.0673 N   0  0  0  0  0  0  0  0  0  0  0  0
   -1.3381   -1.0701   -0.1747 N   0  0  0  0  0  0  0  0  0  0  0  0
    0.0632    0.6989    0.0364 C   0  0  0  0  0  0  0  0  0  0  0  0
   -0.0313   -0.6624   -0.1130 C   0  0  0  0  0  0  0  0  0  0  0  0
   -2.0367    0.0378   -0.0626 C   0  0  0  0  0  0  0  0  0  0  0  0
    1.1887    1.5928    0.1482 C   0  0  0  0  0  0  0  0  0  0  0  0
    1.0784   -1.5697   -0.1975 C   0  0  0  0  0  0  0  0  0  0  0  0
   -3.4758    0.1408   -0.0698 C   0  0  0  0  0  0  0  0  0  0  0  0
    1.7493    2.1564   -0.9985 C   0  0  0  0  0  0  0  0  0  0  0  0
    1.7184    1.8951    1.4031 C   0  0  0  0  0  0  0  0  0  0  0  0
    1.6021   -2.1411    0.9622 C   0  0  0  0  0  0  0  0  0  0  0  0
    1.6330   -1.8798   -1.4392 C   0  0  0  0  0  0  0  0  0  0  0  0
   -4.2560   -0.9107    0.4113 C   0  0  0  0  0  0  0  0  0  0  0  0
   -4.0867    1.2949   -0.5601 C   0  0  0  0  0  0  0  0  0  0  0  0
    2.8383    3.0212   -0.8904 C   0  0  0  0  0  0  0  0  0  0  0  0
    2.8076    2.7600    1.5112 C   0  0  0  0  0  0  0  0  0  0  0  0
    3.3676    3.3229    0.3644 C   0  0  0  0  0  0  0  0  0  0  0  0
    2.6802   -3.0224    0.8802 C   0  0  0  0  0  0  0  0  0  0  0  0
    2.7110   -2.7610   -1.5213 C   0  0  0  0  0  0  0  0  0  0  0  0
    3.2347   -3.3322   -0.3616 C   0  0  0  0  0  0  0  0  0  0  0  0
   -5.6470   -0.8079    0.4021 C   0  0  0  0  0  0  0  0  0  0  0  0
   -5.4777    1.3978   -0.5693 C   0  0  0  0  0  0  0  0  0  0  0  0
   -6.2578    0.3463   -0.0881 C   0  0  0  0  0  0  0  0  0  0  0  0
    4.9545    4.7058   -0.7424 C   0  0  0  0  0  0  0  0  0  0  0  0
    4.7719   -4.7408    0.7827 C   0  0  0  0  0  0  0  0  0  0  0  0
   -1.5294    2.0952    0.1809 H   0  0  0  0  0  0  0  0  0  0  0  0
    1.3481    1.9302   -1.9838 H   0  0  0  0  0  0  0  0  0  0  0  0
    1.2939    1.4640    2.3067 H   0  0  0  0  0  0  0  0  0  0  0  0
    1.1804   -1.9090    1.9375 H   0  0  0  0  0  0  0  0  0  0  0  0
    1.2365   -1.4429   -2.3527 H   0  0  0  0  0  0  0  0  0  0  0  0
   -3.5095    2.1272   -0.9549 H   0  0  0  0  0  0  0  0  0  0  0  0
    3.2244    3.4228   -1.8211 H   0  0  0  0  0  0  0  0  0  0  0  0
    3.2158    2.9910    2.4914 H   0  0  0  0  0  0  0  0  0  0  0  0
    3.0374   -3.4298    1.8198 H   0  0  0  0  0  0  0  0  0  0  0  0
    3.1388   -2.9986   -2.4914 H   0  0  0  0  0  0  0  0  0  0  0  0
   -6.2545   -1.6261    0.7770 H   0  0  0  0  0  0  0  0  0  0  0  0
   -5.9542    2.2949   -0.9536 H   0  0  0  0  0  0  0  0  0  0  0  0
    4.2181    5.3346   -1.2542 H   0  0  0  0  0  0  0  0  0  0  0  0
    5.3535    3.9204   -1.3931 H   0  0  0  0  0  0  0  0  0  0  0  0
    5.7946    5.3537   -0.4715 H   0  0  0  0  0  0  0  0  0  0  0  0
    4.0131   -5.3576    1.2762 H   0  0  0  0  0  0  0  0  0  0  0  0
    5.1677   -3.9619    1.4432 H   0  0  0  0  0  0  0  0  0  0  0  0
    5.6077   -5.4022    0.5318 H   0  0  0  0  0  0  0  0  0  0  0  0
  1 17  1  0  0  0  0
  2 27  1  0  0  0  0
  3 21  1  0  0  0  0
  3 28  1  0  0  0  0
  4 24  1  0  0  0  0
  4 29  1  0  0  0  0
  5  7  1  0  0  0  0
  5  9  1  0  0  0  0
  5 30  1  0  0  0  0
  6  8  1  0  0  0  0
  6  9  2  0  0  0  0
  7  8  2  0  0  0  0
  7 10  1  0  0  0  0
  8 11  1  0  0  0  0
  9 12  1  0  0  0  0
 10 13  2  0  0  0  0
 10 14  1  0  0  0  0
 11 15  2  0  0  0  0
 11 16  1  0  0  0  0
 12 17  2  0  0  0  0
 12 18  1  0  0  0  0
 13 19  1  0  0  0  0
 13 31  1  0  0  0  0
 14 20  2  0  0  0  0
 14 32  1  0  0  0  0
 15 22  1  0  0  0  0
 15 33  1  0  0  0  0
 16 23  2  0  0  0  0
 16 34  1  0  0  0  0
 17 25  1  0  0  0  0
 18 26  2  0  0  0  0
 18 35  1  0  0  0  0
 19 21  2  0  0  0  0
 19 36  1  0  0  0  0
 20 21  1  0  0  0  0
 20 37  1  0  0  0  0
 22 24  2  0  0  0  0
 22 38  1  0  0  0  0
 23 24  1  0  0  0  0
 23 39  1  0  0  0  0
 25 27  2  0  0  0  0
 25 40  1  0  0  0  0
 26 27  1  0  0  0  0
 26 41  1  0  0  0  0
 28 42  1  0  0  0  0
 28 43  1  0  0  0  0
 28 44  1  0  0  0  0
 29 45  1  0  0  0  0
 29 46  1  0  0  0  0
 29 47  1  0  0  0  0
M  END
> <PUBCHEM_COMPOUND_CID>
68917

> <PUBCHEM_CONFORMER_RMSD>
0.8

> <PUBCHEM_CONFORMER_DIVERSEORDER>
1
7
8
6
4
2
5
3

> <PUBCHEM_MMFF94_PARTIAL_CHARGES>
41
1 -0.19
10 0.05
11 0.05
12 0.05
13 -0.15
14 -0.15
15 -0.15
16 -0.15
17 0.19
18 -0.15
19 -0.15
2 -0.19
20 -0.15
21 0.08
22 -0.15
23 -0.15
24 0.08
25 -0.15
26 -0.15
27 0.19
28 0.28
29 0.28
3 -0.36
30 0.27
31 0.15
32 0.15
33 0.15
34 0.15
35 0.15
36 0.15
37 0.15
38 0.15
39 0.15
4 -0.36
40 0.15
41 0.15
5 0.03
6 -0.57
7 -0.2
8 0.17
9 0.13

> <PUBCHEM_EFFECTIVE_ROTOR_COUNT>
5

> <PUBCHEM_PHARMACOPHORE_FEATURES>
8
1 3 acceptor
1 4 acceptor
1 5 donor
3 5 6 9 cation
5 5 6 7 8 9 rings
6 10 13 14 19 20 21 rings
6 11 15 16 22 23 24 rings
6 12 17 18 25 26 27 rings

> <PUBCHEM_HEAVY_ATOM_COUNT>
29

> <PUBCHEM_ATOM_DEF_STEREO_COUNT>
0

> <PUBCHEM_ATOM_UDEF_STEREO_COUNT>
0

> <PUBCHEM_BOND_DEF_STEREO_COUNT>
0

> <PUBCHEM_BOND_UDEF_STEREO_COUNT>
0

> <PUBCHEM_ISOTOPIC_ATOM_COUNT>
0

> <PUBCHEM_COMPONENT_COUNT>
1

> <PUBCHEM_CACTVS_TAUTO_COUNT>
1

> <PUBCHEM_CONFORMER_ID>
00010D3500000001

> <PUBCHEM_MMFF94_ENERGY>
93.1777

> <PUBCHEM_FEATURE_SELFOVERLAP>
40.597

> <PUBCHEM_SHAPE_FINGERPRINT>
10050765 1 18410292528415263559
10190108 129 17693380345226581031
10190206 1 17767955798872967519
10369192 42 18118121609078036709
10411042 1 18122906422015958286
10554248 39 18339906149133687341
10675989 125 18271817864701904616
10721379 63 18340781363956149172
107951 10 17909277115577138948
11297750 10 18042960969729560668
11488393 25 18410865356001837712
11763715 3 17762078553210366598
11963148 33 18052249893940332719
12166972 35 18199746951853658851
12516196 113 18196368121987519730
12549972 3 17895494565197195115
12741549 16 17557969663540630362
12788726 201 17395574991716467602
131258 43 17842018610711821902
133893 2 18268733669659609288
13533116 47 18342174462937979897
13540713 4 18187085062227077843
13540713 5 18059278964291057807
13757389 114 17543642280002006060
13955234 65 18411703200878593681
140371 6 17913215265332019431
14118638 360 18200032980181453295
14394314 77 17905327321232274019
14790565 3 17978508959941024344
15230672 131 18120659291770902932
15347591 1 18410573986443797941
15439362 3 18409447016067121448
15664445 248 18127703625407314750
15927050 60 18197498643853952334
167882 2 18411699902285720292
17913733 40 18197509617252086243
1813 80 17986397680681265015
20028762 73 17334223819350963239
20554085 129 17916576691221594648
20600515 1 17696480576720509684
20771845 65 18058446508695911610
21049683 271 18335147436537241206
21120745 212 17766858134661441582
21133665 82 18123757711137428996
21304303 172 17769656391052732641
2132832 1 17987801783263774465
21927370 108 17980211790072999874
22956985 138 18334573577404649162
23366157 5 18334297565018852220
23559900 14 18335698300500326347
244849 19 17895777161165488907
24771750 20 18336837484761959228
249999 5 18411417336556147536
3004659 81 17678466259478608059
3298306 158 18269278030941754108
3411729 13 18336823181893297561
4058900 60 18267036122696630312
44802255 64 17758415341312526044
5104073 3 18411427198782124739
5219985 13 18122624130726709140
5265222 85 17977674435443727620
5385378 56 18340492252454025705
563151 97 18052248785363113983
59755656 215 18410295830248231796
6669772 16 18270125759361087732
6679774 75 18190725601235780618
77188 2 18194682558388426478
9841814 1 18263077734543758003
9962374 69 18342167844446741527
9981440 41 18119812670777093603

> <PUBCHEM_SHAPE_MULTIPOLES>
560.56
13.12
6.37
1.16
24.09
0.04
0
-1.27
-0.06
-17.43
0.08
-1.02
0.03
0.45

> <PUBCHEM_SHAPE_SELFOVERLAP>
1247.441

> <PUBCHEM_SHAPE_VOLUME>
303.1

> <PUBCHEM_COORDINATE_TYPE>
2
5
10

$$$$
