17012
  -OEChem-09252021233D

 55 58  0     0  0  0  0  0  0999 V2000
    3.2243    2.6236    1.3893 S   0  0  0  0  0  0  0  0  0  0  0  0
    6.4400   -3.0338   -0.3257 F   0  0  0  0  0  0  0  0  0  0  0  0
    4.4571   -3.8657   -0.0430 F   0  0  0  0  0  0  0  0  0  0  0  0
    4.9858   -2.9434   -1.9400 F   0  0  0  0  0  0  0  0  0  0  0  0
   -9.4015   -0.7194   -1.1297 O   0  0  0  0  0  0  0  0  0  0  0  0
   -3.2618   -0.5885    0.8341 N   0  0  0  0  0  0  0  0  0  0  0  0
   -6.0475   -1.1731    0.3279 N   0  0  0  0  0  0  0  0  0  0  0  0
   -3.7769   -0.7183   -0.5344 C   0  0  0  0  0  0  0  0  0  0  0  0
   -4.0477   -1.4149    1.7585 C   0  0  0  0  0  0  0  0  0  0  0  0
   -5.2622   -0.3460   -0.5966 C   0  0  0  0  0  0  0  0  0  0  0  0
   -5.5328   -1.0412    1.6962 C   0  0  0  0  0  0  0  0  0  0  0  0
   -1.8462   -0.9477    0.8923 C   0  0  0  0  0  0  0  0  0  0  0  0
   -7.4634   -0.8158    0.2690 C   0  0  0  0  0  0  0  0  0  0  0  0
   -1.0245   -0.0068    0.0121 C   0  0  0  0  0  0  0  0  0  0  0  0
   -8.0221   -1.0634   -1.1232 C   0  0  0  0  0  0  0  0  0  0  0  0
    0.4301   -0.3479    0.0759 C   0  0  0  0  0  0  0  0  0  0  0  0
    1.4173    0.5591   -0.0583 C   0  0  0  0  0  0  0  0  0  0  0  0
    2.8259    0.1321    0.1578 C   0  0  0  0  0  0  0  0  0  0  0  0
    1.0625    1.9859   -0.2849 C   0  0  0  0  0  0  0  0  0  0  0  0
    3.7224    1.0095    0.7969 C   0  0  0  0  0  0  0  0  0  0  0  0
    1.8350    2.9938    0.3231 C   0  0  0  0  0  0  0  0  0  0  0  0
    3.3048   -1.1076   -0.3012 C   0  0  0  0  0  0  0  0  0  0  0  0
    0.0040    2.3627   -1.1301 C   0  0  0  0  0  0  0  0  0  0  0  0
    4.6342   -1.4811   -0.0983 C   0  0  0  0  0  0  0  0  0  0  0  0
    5.0550    0.6216    1.0018 C   0  0  0  0  0  0  0  0  0  0  0  0
    1.5146    4.3434    0.1131 C   0  0  0  0  0  0  0  0  0  0  0  0
    5.5070   -0.6195    0.5569 C   0  0  0  0  0  0  0  0  0  0  0  0
   -0.3021    3.7084   -1.3379 C   0  0  0  0  0  0  0  0  0  0  0  0
    0.4491    4.6975   -0.7127 C   0  0  0  0  0  0  0  0  0  0  0  0
    5.1196   -2.8034   -0.5890 C   0  0  0  0  0  0  0  0  0  0  0  0
   -3.6310   -1.7373   -0.9178 H   0  0  0  0  0  0  0  0  0  0  0  0
   -3.2819   -0.0273   -1.2227 H   0  0  0  0  0  0  0  0  0  0  0  0
   -3.6970   -1.2590    2.7859 H   0  0  0  0  0  0  0  0  0  0  0  0
   -3.9261   -2.4825    1.5300 H   0  0  0  0  0  0  0  0  0  0  0  0
   -5.3882    0.7224   -0.3748 H   0  0  0  0  0  0  0  0  0  0  0  0
   -5.5605   -0.5074   -1.6365 H   0  0  0  0  0  0  0  0  0  0  0  0
   -6.0843   -1.7117    2.3664 H   0  0  0  0  0  0  0  0  0  0  0  0
   -5.6720   -0.0178    2.0705 H   0  0  0  0  0  0  0  0  0  0  0  0
   -1.6925   -1.9918    0.5869 H   0  0  0  0  0  0  0  0  0  0  0  0
   -1.4899   -0.8604    1.9274 H   0  0  0  0  0  0  0  0  0  0  0  0
   -7.6304    0.2297    0.5609 H   0  0  0  0  0  0  0  0  0  0  0  0
   -8.0368   -1.4231    0.9814 H   0  0  0  0  0  0  0  0  0  0  0  0
   -1.3154   -0.1384   -1.0328 H   0  0  0  0  0  0  0  0  0  0  0  0
   -1.2552    1.0001    0.3688 H   0  0  0  0  0  0  0  0  0  0  0  0
   -7.9336   -2.1170   -1.4070 H   0  0  0  0  0  0  0  0  0  0  0  0
   -7.5587   -0.4531   -1.9012 H   0  0  0  0  0  0  0  0  0  0  0  0
    0.6640   -1.3921    0.2715 H   0  0  0  0  0  0  0  0  0  0  0  0
    2.6473   -1.7918   -0.8341 H   0  0  0  0  0  0  0  0  0  0  0  0
   -0.5433    1.6498   -1.7372 H   0  0  0  0  0  0  0  0  0  0  0  0
   -9.4708    0.2251   -0.9086 H   0  0  0  0  0  0  0  0  0  0  0  0
    5.7578    1.2825    1.5045 H   0  0  0  0  0  0  0  0  0  0  0  0
    2.0942    5.1347    0.5836 H   0  0  0  0  0  0  0  0  0  0  0  0
    6.5450   -0.8921    0.7257 H   0  0  0  0  0  0  0  0  0  0  0  0
   -1.1110    3.9837   -2.0085 H   0  0  0  0  0  0  0  0  0  0  0  0
    0.2141    5.7449   -0.8772 H   0  0  0  0  0  0  0  0  0  0  0  0
  1 20  1  0  0  0  0
  1 21  1  0  0  0  0
  2 30  1  0  0  0  0
  3 30  1  0  0  0  0
  4 30  1  0  0  0  0
  5 15  1  0  0  0  0
  5 50  1  0  0  0  0
  6  8  1  0  0  0  0
  6  9  1  0  0  0  0
  6 12  1  0  0  0  0
  7 10  1  0  0  0  0
  7 11  1  0  0  0  0
  7 13  1  0  0  0  0
  8 10  1  0  0  0  0
  8 31  1  0  0  0  0
  8 32  1  0  0  0  0
  9 11  1  0  0  0  0
  9 33  1  0  0  0  0
  9 34  1  0  0  0  0
 10 35  1  0  0  0  0
 10 36  1  0  0  0  0
 11 37  1  0  0  0  0
 11 38  1  0  0  0  0
 12 14  1  0  0  0  0
 12 39  1  0  0  0  0
 12 40  1  0  0  0  0
 13 15  1  0  0  0  0
 13 41  1  0  0  0  0
 13 42  1  0  0  0  0
 14 16  1  0  0  0  0
 14 43  1  0  0  0  0
 14 44  1  0  0  0  0
 15 45  1  0  0  0  0
 15 46  1  0  0  0  0
 16 17  2  3  0  0  0
 16 47  1  0  0  0  0
 17 18  1  0  0  0  0
 17 19  1  0  0  0  0
 18 20  2  0  0  0  0
 18 22  1  0  0  0  0
 19 21  1  0  0  0  0
 19 23  2  0  0  0  0
 20 25  1  0  0  0  0
 21 26  2  0  0  0  0
 22 24  2  0  0  0  0
 22 48  1  0  0  0  0
 23 28  1  0  0  0  0
 23 49  1  0  0  0  0
 24 27  1  0  0  0  0
 24 30  1  0  0  0  0
 25 27  2  0  0  0  0
 25 51  1  0  0  0  0
 26 29  1  0  0  0  0
 26 52  1  0  0  0  0
 27 53  1  0  0  0  0
 28 29  2  0  0  0  0
 28 54  1  0  0  0  0
 29 55  1  0  0  0  0
M  END
> <PUBCHEM_COMPOUND_CID>
17012

> <PUBCHEM_CONFORMER_RMSD>
1

> <PUBCHEM_CONFORMER_DIVERSEORDER>
1
5
26
23
17
28
19
8
25
22
14
6
20
27
10
12
9
13
3
2
21
18
7
11
16
15
24
4

> <PUBCHEM_MMFF94_PARTIAL_CHARGES>
39
1 -0.2
10 0.27
11 0.27
12 0.27
13 0.27
14 0.14
15 0.28
16 -0.29
17 -0.06
18 0.03
19 0.03
2 -0.34
20 0.1
21 0.1
22 -0.15
23 -0.15
24 -0.14
25 -0.15
26 -0.15
27 -0.15
28 -0.15
29 -0.15
3 -0.34
30 1.16
4 -0.34
47 0.15
48 0.15
49 0.15
5 -0.68
50 0.4
51 0.15
52 0.15
53 0.15
54 0.15
55 0.15
6 -0.81
7 -0.81
8 0.27
9 0.27

> <PUBCHEM_EFFECTIVE_ROTOR_COUNT>
7.4

> <PUBCHEM_PHARMACOPHORE_FEATURES>
8
1 5 acceptor
1 5 donor
1 6 cation
1 7 cation
6 1 17 18 19 20 21 rings
6 18 20 22 24 25 27 rings
6 19 21 23 26 28 29 rings
6 6 7 8 9 10 11 rings

> <PUBCHEM_HEAVY_ATOM_COUNT>
30

> <PUBCHEM_ATOM_DEF_STEREO_COUNT>
0

> <PUBCHEM_ATOM_UDEF_STEREO_COUNT>
0

> <PUBCHEM_BOND_DEF_STEREO_COUNT>
0

> <PUBCHEM_BOND_UDEF_STEREO_COUNT>
1

> <PUBCHEM_ISOTOPIC_ATOM_COUNT>
0

> <PUBCHEM_COMPONENT_COUNT>
1

> <PUBCHEM_CACTVS_TAUTO_COUNT>
1

> <PUBCHEM_CONFORMER_ID>
0000427400000001

> <PUBCHEM_MMFF94_ENERGY>
81.203

> <PUBCHEM_FEATURE_SELFOVERLAP>
40.627

> <PUBCHEM_SHAPE_FINGERPRINT>
10411042 1 18339642227355544142
10673678 19 17170975918081965748
11186622 174 18341611534027066643
11297750 10 18338227168913155280
11386260 185 18261100933740224053
11991303 11 17465673281835170444
12166972 35 18272371992712651489
12623949 98 18060147496735114822
12645989 146 18411138035392220535
12788726 201 18042407924619713330
13008946 170 17985818474641138713
13533116 47 18273216425668098603
13540713 4 18125990587150679768
13631057 29 18191032201744791394
13690498 29 18125452921532788414
13757389 114 16169777315223593532
13911852 28 18339364059060968626
14068700 675 18131073697260039625
14170010 4 18339637944856665681
14400156 350 17973437990881934396
14725015 67 18336259025840751498
14790565 3 17325491498156420012
15081414 286 18336267941744152744
15183329 4 16009034960330450527
15320294 125 16916776388919161903
15351339 4 17677604264042386915
15419008 47 17894907421830184317
15420108 30 17546715415497817280
1813 80 18270135547095559540
19301676 85 16107272690509085798
1979834 28 18267860765202647520
21133410 58 18409442618316841111
21223535 225 18336263441536278949
21859007 373 17604690267180508805
23516275 137 12541245586814398025
23559900 14 18262238936616648907
23569943 247 18193558870248428075
24771750 20 17392500074479615740
249057 25 17917722335825858561
255183 451 18272379624990725862
3103668 31 17969777480808258061
4046055 4 18261678056263328356
4144715 1 18114752646006043945
437815 12 18333733507486186109
54076057 255 14345794963855624543
58902169 19 18201147850569835543
6371380 46 17822005450280811787
70251023 43 18337392635144506514
9831232 110 18261958548161811631

> <PUBCHEM_SHAPE_MULTIPOLES>
583.58
19.18
4.93
1.35
42.99
4.24
-0.12
-18.31
2.15
-8.85
1.59
0.69
-0.12
2.47

> <PUBCHEM_SHAPE_SELFOVERLAP>
1238.657

> <PUBCHEM_SHAPE_VOLUME>
329.4

> <PUBCHEM_COORDINATE_TYPE>
2
5
10

$$$$
