60741
  -OEChem-09252021233D

 37 38  0     1  0  0  0  0  0999 V2000
   -2.9686    0.8134   -0.3496 S   0  0  0  0  0  0  0  0  0  0  0  0
   -0.2611   -0.6871    2.2999 F   0  0  0  0  0  0  0  0  0  0  0  0
    0.0606   -4.6374   -0.2847 F   0  0  0  0  0  0  0  0  0  0  0  0
   -0.0947    1.5175   -1.3190 O   0  0  0  0  0  0  0  0  0  0  0  0
   -3.0522    1.5218   -1.6081 O   0  0  0  0  0  0  0  0  0  0  0  0
   -2.8558   -0.6276   -0.2993 O   0  0  0  0  0  0  0  0  0  0  0  0
    2.3094    1.2906    0.3124 N   0  0  0  0  0  0  0  0  0  0  0  0
    2.9566    0.2093    0.7325 N   0  0  0  0  0  0  0  0  0  0  0  0
    4.1642    1.4189   -0.7878 N   0  0  0  0  0  0  0  0  0  0  0  0
   -0.2099    0.9689    0.0108 C   0  0  2  0  0  0  0  0  0  0  0  0
   -1.5836    1.4903    0.5541 C   0  0  1  0  0  0  0  0  0  0  0  0
    0.9685    1.5863    0.8282 C   0  0  0  0  0  0  0  0  0  0  0  0
   -0.1355   -0.5596   -0.0672 C   0  0  0  0  0  0  0  0  0  0  0  0
   -1.7561    3.0046    0.6503 C   0  0  0  0  0  0  0  0  0  0  0  0
   -4.3550    1.2933    0.6466 C   0  0  0  0  0  0  0  0  0  0  0  0
   -0.1672   -1.2819    1.1025 C   0  0  0  0  0  0  0  0  0  0  0  0
   -0.0406   -1.1474   -1.3066 C   0  0  0  0  0  0  0  0  0  0  0  0
   -0.0997   -2.6732    1.0282 C   0  0  0  0  0  0  0  0  0  0  0  0
    0.0269   -2.5385   -1.3808 C   0  0  0  0  0  0  0  0  0  0  0  0
    3.0100    2.0095   -0.5816 C   0  0  0  0  0  0  0  0  0  0  0  0
   -0.0027   -3.3015   -0.2134 C   0  0  0  0  0  0  0  0  0  0  0  0
    4.0866    0.3299    0.0325 C   0  0  0  0  0  0  0  0  0  0  0  0
   -1.7070    1.0955    1.5713 H   0  0  0  0  0  0  0  0  0  0  0  0
    0.9555    1.2810    1.8802 H   0  0  0  0  0  0  0  0  0  0  0  0
    0.9186    2.6808    0.8076 H   0  0  0  0  0  0  0  0  0  0  0  0
   -0.9967    3.4511    1.2983 H   0  0  0  0  0  0  0  0  0  0  0  0
   -2.7148    3.2921    1.0878 H   0  0  0  0  0  0  0  0  0  0  0  0
   -1.6827    3.4829   -0.3317 H   0  0  0  0  0  0  0  0  0  0  0  0
   -0.9245    1.3762   -1.8029 H   0  0  0  0  0  0  0  0  0  0  0  0
   -4.5552    2.3580    0.5266 H   0  0  0  0  0  0  0  0  0  0  0  0
   -5.2233    0.7297    0.2957 H   0  0  0  0  0  0  0  0  0  0  0  0
   -4.1569    1.0382    1.6889 H   0  0  0  0  0  0  0  0  0  0  0  0
   -0.0113   -0.5962   -2.2394 H   0  0  0  0  0  0  0  0  0  0  0  0
   -0.1233   -3.2672    1.9369 H   0  0  0  0  0  0  0  0  0  0  0  0
    0.1027   -3.0286   -2.3470 H   0  0  0  0  0  0  0  0  0  0  0  0
    2.6628    2.9219   -1.0457 H   0  0  0  0  0  0  0  0  0  0  0  0
    4.8779   -0.3993    0.1221 H   0  0  0  0  0  0  0  0  0  0  0  0
  1  5  2  0  0  0  0
  1  6  2  0  0  0  0
  1 11  1  0  0  0  0
  1 15  1  0  0  0  0
  2 16  1  0  0  0  0
  3 21  1  0  0  0  0
  4 10  1  0  0  0  0
  4 29  1  0  0  0  0
  7  8  1  0  0  0  0
  7 12  1  0  0  0  0
  7 20  1  0  0  0  0
  8 22  2  0  0  0  0
  9 20  2  0  0  0  0
  9 22  1  0  0  0  0
 10 11  1  0  0  0  0
 10 12  1  0  0  0  0
 10 13  1  0  0  0  0
 11 14  1  0  0  0  0
 11 23  1  0  0  0  0
 12 24  1  0  0  0  0
 12 25  1  0  0  0  0
 13 16  2  0  0  0  0
 13 17  1  0  0  0  0
 14 26  1  0  0  0  0
 14 27  1  0  0  0  0
 14 28  1  0  0  0  0
 15 30  1  0  0  0  0
 15 31  1  0  0  0  0
 15 32  1  0  0  0  0
 16 18  1  0  0  0  0
 17 19  2  0  0  0  0
 17 33  1  0  0  0  0
 18 21  2  0  0  0  0
 18 34  1  0  0  0  0
 19 21  1  0  0  0  0
 19 35  1  0  0  0  0
 20 36  1  0  0  0  0
 22 37  1  0  0  0  0
M  END
> <PUBCHEM_COMPOUND_CID>
60741

> <PUBCHEM_CONFORMER_RMSD>
0.8

> <PUBCHEM_CONFORMER_DIVERSEORDER>
1
71
21
46
52
45
49
64
54
56
26
23
55
11
38
37
74
44
15
41
30
69
19
4
50
32
70
57
62
35
14
65
12
63
29
48
60
73
16
40
53
42
68
72
67
20
59
8
66
58
51
13
61
31
10
3
17
43
22
39
27
7
28
2
47
24
9
36
6
25
34
33
5
18

> <PUBCHEM_MMFF94_PARTIAL_CHARGES>
27
1 1.09
10 0.42
11 0.11
12 0.26
13 -0.14
15 0.11
16 0.19
17 -0.15
18 -0.15
19 -0.15
2 -0.19
20 0.04
21 0.19
22 0.37
29 0.4
3 -0.19
33 0.15
34 0.15
35 0.15
36 0.15
37 0.15
4 -0.68
5 -0.65
6 -0.65
7 0.31
8 -0.71
9 -0.57

> <PUBCHEM_EFFECTIVE_ROTOR_COUNT>
5

> <PUBCHEM_PHARMACOPHORE_FEATURES>
8
1 4 acceptor
1 4 donor
1 5 acceptor
1 6 acceptor
3 7 9 20 cation
3 8 9 22 cation
5 7 8 9 20 22 rings
6 13 16 17 18 19 21 rings

> <PUBCHEM_HEAVY_ATOM_COUNT>
22

> <PUBCHEM_ATOM_DEF_STEREO_COUNT>
0

> <PUBCHEM_ATOM_UDEF_STEREO_COUNT>
2

> <PUBCHEM_BOND_DEF_STEREO_COUNT>
0

> <PUBCHEM_BOND_UDEF_STEREO_COUNT>
0

> <PUBCHEM_ISOTOPIC_ATOM_COUNT>
0

> <PUBCHEM_COMPONENT_COUNT>
1

> <PUBCHEM_CACTVS_TAUTO_COUNT>
1

> <PUBCHEM_CONFORMER_ID>
0000ED4500000001

> <PUBCHEM_MMFF94_ENERGY>
53.3454

> <PUBCHEM_FEATURE_SELFOVERLAP>
43.391

> <PUBCHEM_SHAPE_FINGERPRINT>
107951 10 17749688345639559154
10922049 32 18408890637213008177
12035759 4 18056446561854475655
12553582 1 17257095290728207626
12592029 89 18340773624113696211
12788726 201 17975690911570495386
13681431 1 17617643372167733725
14251751 93 18271235123237775591
15163728 17 17532385153238744804
15309172 13 18408603651762017412
15906896 17 18117844519183319754
16752209 62 18266444580755152426
16945 1 18194682566540517577
18915476 22 18191298274562369869
19591789 44 18339921623114747187
20028762 73 17914619599564130031
20567600 347 18339368469870627055
20602899 9 18130801065700183842
20645476 183 18188208805416980636
20905425 154 17767125306806576756
21421861 104 18123479271979533425
21524375 3 18335417941877645512
22907989 373 18048622574255074684
23114952 82 17829592986392168405
23366157 5 17902524687551727393
23419403 2 17686667538163297186
23557571 272 17840856692976775032
23598288 3 17972334072790694164
23728640 28 18411411839483481026
298252 57 18411974775902991498
404807 78 17536277640294480351
43471831 8 18268991990330444248
458136 41 18339651027274074297
59755656 215 18122913031664730541
6138700 20 17979925913155782790
633830 44 17989766696083746493
7364860 26 18053101722807305379
81228 2 17762037136328547497
81539 233 18336262328110750381

> <PUBCHEM_SHAPE_MULTIPOLES>
409.5
5.52
4.08
1.38
0.76
4.58
-0.09
-5.08
0.52
0.56
0.21
-0.25
0.24
-0.25

> <PUBCHEM_SHAPE_SELFOVERLAP>
860.29

> <PUBCHEM_SHAPE_VOLUME>
234.6

> <PUBCHEM_COORDINATE_TYPE>
2
5
10

$$$$
