60852
  -OEChem-09252021243D

 42 41  0     1  0  0  0  0  0999 V2000
    2.5682   -0.6734   -1.2736 P   0  0  0  0  0  0  0  0  0  0  0  0
    1.7834    1.8118    0.5149 P   0  0  0  0  0  0  0  0  0  0  0  0
    3.2202   -0.1722    1.1571 O   0  0  0  0  0  0  0  0  0  0  0  0
    3.2865   -2.0745   -0.9080 O   0  0  0  0  0  0  0  0  0  0  0  0
    3.8058    0.2810   -1.6914 O   0  0  0  0  0  0  0  0  0  0  0  0
    3.1318    2.4778   -0.0747 O   0  0  0  0  0  0  0  0  0  0  0  0
    1.8907    2.0685    2.1066 O   0  0  0  0  0  0  0  0  0  0  0  0
    1.4755   -0.7592   -2.2966 O   0  0  0  0  0  0  0  0  0  0  0  0
    0.5080    2.3013   -0.1065 O   0  0  0  0  0  0  0  0  0  0  0  0
   -1.3755   -1.6420    1.0038 N   0  0  1  0  0  0  0  0  0  0  0  0
    2.0457    0.0048    0.3509 C   0  0  0  0  0  0  0  0  0  0  0  0
    0.9388   -0.8499    1.0050 C   0  0  0  0  0  0  0  0  0  0  0  0
   -0.4112   -0.8038    0.2960 C   0  0  0  0  0  0  0  0  0  0  0  0
   -2.6832   -1.5834    0.3505 C   0  0  0  0  0  0  0  0  0  0  0  0
   -3.1929   -0.1437    0.3120 C   0  0  0  0  0  0  0  0  0  0  0  0
   -4.5706   -0.0623   -0.3489 C   0  0  0  0  0  0  0  0  0  0  0  0
   -0.9010   -3.0244    1.0714 C   0  0  0  0  0  0  0  0  0  0  0  0
   -5.0686    1.3811   -0.4212 C   0  0  0  0  0  0  0  0  0  0  0  0
   -6.4517    1.4626   -1.0471 C   0  0  0  0  0  0  0  0  0  0  0  0
    1.3309   -1.8719    1.0394 H   0  0  0  0  0  0  0  0  0  0  0  0
    0.8191   -0.5357    2.0505 H   0  0  0  0  0  0  0  0  0  0  0  0
   -0.7152    0.2405    0.3190 H   0  0  0  0  0  0  0  0  0  0  0  0
   -0.3260   -1.1146   -0.7479 H   0  0  0  0  0  0  0  0  0  0  0  0
   -3.4027   -2.1915    0.9131 H   0  0  0  0  0  0  0  0  0  0  0  0
   -2.6357   -1.9923   -0.6675 H   0  0  0  0  0  0  0  0  0  0  0  0
   -2.5441    0.5056   -0.2829 H   0  0  0  0  0  0  0  0  0  0  0  0
   -3.2427    0.2698    1.3268 H   0  0  0  0  0  0  0  0  0  0  0  0
   -4.5214   -0.4835   -1.3605 H   0  0  0  0  0  0  0  0  0  0  0  0
   -5.2852   -0.6699    0.2196 H   0  0  0  0  0  0  0  0  0  0  0  0
   -1.6996   -3.6853    1.4312 H   0  0  0  0  0  0  0  0  0  0  0  0
   -0.5731   -3.4059    0.0975 H   0  0  0  0  0  0  0  0  0  0  0  0
   -0.0954   -3.1456    1.8020 H   0  0  0  0  0  0  0  0  0  0  0  0
    3.4553   -1.1155    1.1425 H   0  0  0  0  0  0  0  0  0  0  0  0
   -4.3709    1.9878   -1.0101 H   0  0  0  0  0  0  0  0  0  0  0  0
   -5.1048    1.8135    0.5855 H   0  0  0  0  0  0  0  0  0  0  0  0
    3.6242   -2.6390   -1.6356 H   0  0  0  0  0  0  0  0  0  0  0  0
    4.2373    0.1442   -2.5616 H   0  0  0  0  0  0  0  0  0  0  0  0
    3.1964    3.4553   -0.1251 H   0  0  0  0  0  0  0  0  0  0  0  0
    1.7286    2.9713    2.4542 H   0  0  0  0  0  0  0  0  0  0  0  0
   -6.7879    2.5033   -1.0896 H   0  0  0  0  0  0  0  0  0  0  0  0
   -6.4444    1.0659   -2.0673 H   0  0  0  0  0  0  0  0  0  0  0  0
   -7.1813    0.8936   -0.4621 H   0  0  0  0  0  0  0  0  0  0  0  0
  1  4  1  0  0  0  0
  1  5  1  0  0  0  0
  1  8  2  0  0  0  0
  1 11  1  0  0  0  0
  2  6  1  0  0  0  0
  2  7  1  0  0  0  0
  2  9  2  0  0  0  0
  2 11  1  0  0  0  0
  3 11  1  0  0  0  0
  3 33  1  0  0  0  0
  4 36  1  0  0  0  0
  5 37  1  0  0  0  0
  6 38  1  0  0  0  0
  7 39  1  0  0  0  0
 10 13  1  0  0  0  0
 10 14  1  0  0  0  0
 10 17  1  0  0  0  0
 11 12  1  0  0  0  0
 12 13  1  0  0  0  0
 12 20  1  0  0  0  0
 12 21  1  0  0  0  0
 13 22  1  0  0  0  0
 13 23  1  0  0  0  0
 14 15  1  0  0  0  0
 14 24  1  0  0  0  0
 14 25  1  0  0  0  0
 15 16  1  0  0  0  0
 15 26  1  0  0  0  0
 15 27  1  0  0  0  0
 16 18  1  0  0  0  0
 16 28  1  0  0  0  0
 16 29  1  0  0  0  0
 17 30  1  0  0  0  0
 17 31  1  0  0  0  0
 17 32  1  0  0  0  0
 18 19  1  0  0  0  0
 18 34  1  0  0  0  0
 18 35  1  0  0  0  0
 19 40  1  0  0  0  0
 19 41  1  0  0  0  0
 19 42  1  0  0  0  0
M  END
> <PUBCHEM_COMPOUND_CID>
60852

> <PUBCHEM_CONFORMER_RMSD>
0.8

> <PUBCHEM_CONFORMER_DIVERSEORDER>
1
89
17
56
52
62
91
40
55
68
32
80
85
49
79
50
25
3
92
71
10
75
88
86
48
65
31
84
44
72
23
30
90
57
22
83
20
87
63
47
8
54
43
82
70
21
7
2
73
11
37
39
67
45
12
78
58
46
59
69
60
41
34
51
24
19
61
29
9
13
42
38
35
27
14
36
26
81
64
74
6
4
16
5
77
28
76
66
53
18
15
33

> <PUBCHEM_MMFF94_PARTIAL_CHARGES>
19
1 1.24
10 -0.81
11 0.28
13 0.27
14 0.27
17 0.27
2 1.24
3 -0.68
33 0.4
36 0.5
37 0.5
38 0.5
39 0.5
4 -0.77
5 -0.77
6 -0.77
7 -0.77
8 -0.7
9 -0.7

> <PUBCHEM_EFFECTIVE_ROTOR_COUNT>
9

> <PUBCHEM_PHARMACOPHORE_FEATURES>
12
1 10 cation
1 19 hydrophobe
1 3 acceptor
1 3 donor
1 4 acceptor
1 5 acceptor
1 6 acceptor
1 7 acceptor
1 8 acceptor
1 9 acceptor
4 1 4 5 8 anion
4 2 6 7 9 anion

> <PUBCHEM_HEAVY_ATOM_COUNT>
19

> <PUBCHEM_ATOM_DEF_STEREO_COUNT>
0

> <PUBCHEM_ATOM_UDEF_STEREO_COUNT>
0

> <PUBCHEM_BOND_DEF_STEREO_COUNT>
0

> <PUBCHEM_BOND_UDEF_STEREO_COUNT>
0

> <PUBCHEM_ISOTOPIC_ATOM_COUNT>
0

> <PUBCHEM_COMPONENT_COUNT>
1

> <PUBCHEM_CACTVS_TAUTO_COUNT>
1

> <PUBCHEM_CONFORMER_ID>
0000EDB400000001

> <PUBCHEM_MMFF94_ENERGY>
-37.03

> <PUBCHEM_FEATURE_SELFOVERLAP>
60.985

> <PUBCHEM_SHAPE_FINGERPRINT>
10498660 4 18333732421012629241
116883 192 18200602393037314080
12500047 106 18262809578234543902
12596602 18 13696163851913093157
12654215 9 18271535298665337192
12778500 126 13263233295833068181
13134695 92 17774732999757901480
14251764 38 18265325295820651981
15210252 30 17821738225251793669
15342816 4 13326853340386302755
15806764 133 18265076750178799675
18186145 218 18341057384598674827
20233049 118 18186523189392621362
20626108 58 13901903384938029091
20645477 70 17559975344585288526
21069387 34 15985115097594446623
212847 35 18040432157826480785
22289505 5 18343582927830882549
23503958 25 17968954118227965739
23557571 272 17757554431828433003
23559900 14 18341899584524880370
238 59 17417816213391014847
3060560 45 18272363123389160351
495365 180 17631721802517976928
5281201 14 18202567298026273299
6049 1 18122648285511694043
633830 44 18411409610469125431
81228 2 17625296051055643930

> <PUBCHEM_SHAPE_MULTIPOLES>
352.64
9.96
2.83
1.6
17.39
0.18
-0.38
-5.23
-3.91
-0.39
0.84
-1.6
-0.02
1.71

> <PUBCHEM_SHAPE_SELFOVERLAP>
639.819

> <PUBCHEM_SHAPE_VOLUME>
226.2

> <PUBCHEM_COORDINATE_TYPE>
2
5
10

$$$$
