60753
  -OEChem-09252021243D

 62 62  0     1  0  0  0  0  0999 V2000
   -6.4856   -0.2029   -1.3796 S   0  0  0  0  0  0  0  0  0  0  0  0
   -0.6542   -0.4981    3.2808 O   0  0  0  0  0  0  0  0  0  0  0  0
   -7.9255   -0.3199   -1.5153 O   0  0  0  0  0  0  0  0  0  0  0  0
   -5.8519    1.1003   -1.3482 O   0  0  0  0  0  0  0  0  0  0  0  0
    2.2669    2.0223   -0.2108 N   0  0  2  0  0  0  0  0  0  0  0  0
   -5.9851   -1.1633   -0.0404 N   0  0  0  0  0  0  0  0  0  0  0  0
    3.1406    1.1278   -0.9609 C   0  0  0  0  0  0  0  0  0  0  0  0
    0.8957    1.9491   -0.7186 C   0  0  0  0  0  0  0  0  0  0  0  0
    4.3758    0.7745   -0.1325 C   0  0  0  0  0  0  0  0  0  0  0  0
    0.1931    0.6846   -0.2233 C   0  0  0  0  0  0  0  0  0  0  0  0
    5.3014   -0.1722   -0.9011 C   0  0  0  0  0  0  0  0  0  0  0  0
    0.1105    0.6635    1.3058 C   0  0  0  0  0  0  0  0  0  0  0  0
    6.5758   -0.5353   -0.1332 C   0  0  0  0  0  0  0  0  0  0  0  0
    2.7596    3.3992   -0.2769 C   0  0  0  0  0  0  0  0  0  0  0  0
   -0.6112   -0.5769    1.8548 C   0  0  2  0  0  0  0  0  0  0  0  0
    7.4653   -1.5391   -0.8700 C   0  0  0  0  0  0  0  0  0  0  0  0
   -2.0284   -0.7313    1.3539 C   0  0  0  0  0  0  0  0  0  0  0  0
    8.7267   -1.8554   -0.0652 C   0  0  0  0  0  0  0  0  0  0  0  0
    1.8581    4.3429    0.5009 C   0  0  0  0  0  0  0  0  0  0  0  0
   -2.9548    0.2918    1.5561 C   0  0  0  0  0  0  0  0  0  0  0  0
   -2.4109   -1.8973    0.6906 C   0  0  0  0  0  0  0  0  0  0  0  0
    9.6309   -2.8277   -0.8062 C   0  0  0  0  0  0  0  0  0  0  0  0
   -4.2634    0.1489    1.0950 C   0  0  0  0  0  0  0  0  0  0  0  0
   -3.7194   -2.0402    0.2295 C   0  0  0  0  0  0  0  0  0  0  0  0
   -4.6458   -1.0170    0.4316 C   0  0  0  0  0  0  0  0  0  0  0  0
   -5.7643   -1.1284   -2.7167 C   0  0  0  0  0  0  0  0  0  0  0  0
    2.6431    0.1817   -1.2002 H   0  0  0  0  0  0  0  0  0  0  0  0
    3.4317    1.5641   -1.9258 H   0  0  0  0  0  0  0  0  0  0  0  0
    0.2593    2.7728   -0.3861 H   0  0  0  0  0  0  0  0  0  0  0  0
    0.8799    1.9814   -1.8161 H   0  0  0  0  0  0  0  0  0  0  0  0
    4.0705    0.2995    0.8085 H   0  0  0  0  0  0  0  0  0  0  0  0
    4.9462    1.6719    0.1300 H   0  0  0  0  0  0  0  0  0  0  0  0
   -0.8155    0.6787   -0.6537 H   0  0  0  0  0  0  0  0  0  0  0  0
    0.6806   -0.2268   -0.5839 H   0  0  0  0  0  0  0  0  0  0  0  0
    4.7548   -1.0927   -1.1414 H   0  0  0  0  0  0  0  0  0  0  0  0
    5.5817    0.2881   -1.8568 H   0  0  0  0  0  0  0  0  0  0  0  0
    1.1175    0.6836    1.7419 H   0  0  0  0  0  0  0  0  0  0  0  0
   -0.3757    1.5782    1.6689 H   0  0  0  0  0  0  0  0  0  0  0  0
    7.1464    0.3807    0.0642 H   0  0  0  0  0  0  0  0  0  0  0  0
    6.2982   -0.9516    0.8432 H   0  0  0  0  0  0  0  0  0  0  0  0
    2.8461    3.7536   -1.3120 H   0  0  0  0  0  0  0  0  0  0  0  0
    3.7563    3.4638    0.1722 H   0  0  0  0  0  0  0  0  0  0  0  0
   -0.0271   -1.4702    1.6021 H   0  0  0  0  0  0  0  0  0  0  0  0
    6.9031   -2.4624   -1.0543 H   0  0  0  0  0  0  0  0  0  0  0  0
    7.7444   -1.1293   -1.8482 H   0  0  0  0  0  0  0  0  0  0  0  0
    9.2823   -0.9319    0.1356 H   0  0  0  0  0  0  0  0  0  0  0  0
    8.4515   -2.2862    0.9045 H   0  0  0  0  0  0  0  0  0  0  0  0
    2.4050    5.2685    0.7156 H   0  0  0  0  0  0  0  0  0  0  0  0
    1.5526    3.9213    1.4648 H   0  0  0  0  0  0  0  0  0  0  0  0
    0.9694    4.6433   -0.0622 H   0  0  0  0  0  0  0  0  0  0  0  0
   -2.6792    1.2027    2.0802 H   0  0  0  0  0  0  0  0  0  0  0  0
   -1.7003   -2.7025    0.5251 H   0  0  0  0  0  0  0  0  0  0  0  0
    9.9514   -2.4114   -1.7665 H   0  0  0  0  0  0  0  0  0  0  0  0
   10.5256   -3.0407   -0.2128 H   0  0  0  0  0  0  0  0  0  0  0  0
    9.1158   -3.7747   -0.9965 H   0  0  0  0  0  0  0  0  0  0  0  0
    0.2627   -0.4368    3.5989 H   0  0  0  0  0  0  0  0  0  0  0  0
   -4.9773    0.9488    1.2730 H   0  0  0  0  0  0  0  0  0  0  0  0
   -4.0059   -2.9525   -0.2873 H   0  0  0  0  0  0  0  0  0  0  0  0
   -6.3191   -2.1364   -0.0524 H   0  0  0  0  0  0  0  0  0  0  0  0
   -6.1390   -2.1531   -2.6835 H   0  0  0  0  0  0  0  0  0  0  0  0
   -4.6770   -1.1027   -2.6290 H   0  0  0  0  0  0  0  0  0  0  0  0
   -6.0676   -0.6554   -3.6536 H   0  0  0  0  0  0  0  0  0  0  0  0
  1  3  2  0  0  0  0
  1  4  2  0  0  0  0
  1  6  1  0  0  0  0
  1 26  1  0  0  0  0
  2 15  1  0  0  0  0
  2 56  1  0  0  0  0
  5  7  1  0  0  0  0
  5  8  1  0  0  0  0
  5 14  1  0  0  0  0
  6 25  1  0  0  0  0
  6 59  1  0  0  0  0
  7  9  1  0  0  0  0
  7 27  1  0  0  0  0
  7 28  1  0  0  0  0
  8 10  1  0  0  0  0
  8 29  1  0  0  0  0
  8 30  1  0  0  0  0
  9 11  1  0  0  0  0
  9 31  1  0  0  0  0
  9 32  1  0  0  0  0
 10 12  1  0  0  0  0
 10 33  1  0  0  0  0
 10 34  1  0  0  0  0
 11 13  1  0  0  0  0
 11 35  1  0  0  0  0
 11 36  1  0  0  0  0
 12 15  1  0  0  0  0
 12 37  1  0  0  0  0
 12 38  1  0  0  0  0
 13 16  1  0  0  0  0
 13 39  1  0  0  0  0
 13 40  1  0  0  0  0
 14 19  1  0  0  0  0
 14 41  1  0  0  0  0
 14 42  1  0  0  0  0
 15 17  1  0  0  0  0
 15 43  1  0  0  0  0
 16 18  1  0  0  0  0
 16 44  1  0  0  0  0
 16 45  1  0  0  0  0
 17 20  2  0  0  0  0
 17 21  1  0  0  0  0
 18 22  1  0  0  0  0
 18 46  1  0  0  0  0
 18 47  1  0  0  0  0
 19 48  1  0  0  0  0
 19 49  1  0  0  0  0
 19 50  1  0  0  0  0
 20 23  1  0  0  0  0
 20 51  1  0  0  0  0
 21 24  2  0  0  0  0
 21 52  1  0  0  0  0
 22 53  1  0  0  0  0
 22 54  1  0  0  0  0
 22 55  1  0  0  0  0
 23 25  2  0  0  0  0
 23 57  1  0  0  0  0
 24 25  1  0  0  0  0
 24 58  1  0  0  0  0
 26 60  1  0  0  0  0
 26 61  1  0  0  0  0
 26 62  1  0  0  0  0
M  END
> <PUBCHEM_COMPOUND_CID>
60753

> <PUBCHEM_CONFORMER_RMSD>
1.6

> <PUBCHEM_CONFORMER_DIVERSEORDER>
3
33
28
62
11
61
50
59
24
13
41
14
27
43
51
18
45
42
32
58
36
39
48
23
34
5
46
57
22
16
25
40
7
37
53
54
20
4
29
15
8
26
49
52
56
55
10
30
38
31
35
47
44
2
60
6
9
19
17
21
1
12

> <PUBCHEM_MMFF94_PARTIAL_CHARGES>
23
1 1.33
14 0.27
15 0.42
17 -0.14
2 -0.68
20 -0.15
21 -0.15
23 -0.15
24 -0.15
25 0.2
26 0.11
3 -0.65
4 -0.65
5 -0.81
51 0.15
52 0.15
56 0.4
57 0.15
58 0.15
59 0.42
6 -0.76
7 0.27
8 0.27

> <PUBCHEM_EFFECTIVE_ROTOR_COUNT>
14

> <PUBCHEM_PHARMACOPHORE_FEATURES>
9
1 2 acceptor
1 2 donor
1 22 hydrophobe
1 3 acceptor
1 4 acceptor
1 5 cation
1 6 donor
5 9 11 13 16 18 hydrophobe
6 17 20 21 23 24 25 rings

> <PUBCHEM_HEAVY_ATOM_COUNT>
26

> <PUBCHEM_ATOM_DEF_STEREO_COUNT>
0

> <PUBCHEM_ATOM_UDEF_STEREO_COUNT>
1

> <PUBCHEM_BOND_DEF_STEREO_COUNT>
0

> <PUBCHEM_BOND_UDEF_STEREO_COUNT>
0

> <PUBCHEM_ISOTOPIC_ATOM_COUNT>
0

> <PUBCHEM_COMPONENT_COUNT>
1

> <PUBCHEM_CACTVS_TAUTO_COUNT>
1

> <PUBCHEM_CONFORMER_ID>
0000ED5100000003

> <PUBCHEM_MMFF94_ENERGY>
41.3098

> <PUBCHEM_FEATURE_SELFOVERLAP>
45.688

> <PUBCHEM_SHAPE_FINGERPRINT>
10483366 6 18187080624655591978
10670039 82 16950558862065272293
10674148 151 15213019363127753070
10917259 69 18192147093060124069
11135609 201 9151170944302961724
11408170 108 17988651731675414542
1200032 147 13190337964123865136
12760667 363 18187941547478085760
14117953 113 18411421692186411582
14931854 50 17313389990166034314
15052358 14 18040434403756876930
15183329 4 18113896061522219587
15188451 53 17489872635451360662
15320295 40 17989202634054996950
15475509 8 16660361493617571748
15519825 34 16487248877309838286
16126227 98 9583221831193647850
1768 4 9799682698007111686
21279426 13 17822290227301551504
21307412 95 17822304495826584938
21365058 27 7997965765717747624
23559900 14 18267588085833474080
2747138 104 12751246925750109698
2838139 119 17751335440159905421
3014063 24 18130793335249830398
32027 91 18339083799812729698
38570 142 12757151298985866356
4107672 100 15285654213085739050
437815 12 18334863809951012132
444769 64 18260841353773402785
5758199 1 8646767786042597430
59682541 35 12103841271848060582
9689198 14 11819275538351145970

> <PUBCHEM_SHAPE_MULTIPOLES>
511.35
24.46
3.32
2.04
34.06
3.58
0.47
-22.84
-13.97
5.99
-0.29
-3.7
-0.52
0.43

> <PUBCHEM_SHAPE_SELFOVERLAP>
987.188

> <PUBCHEM_SHAPE_VOLUME>
312.9

> <PUBCHEM_COORDINATE_TYPE>
2
5
10

$$$$
