3695
  -OEChem-09252021243D

 37 38  0     1  0  0  0  0  0999 V2000
   -1.7227   -0.0513    1.5095 S   0  0  0  0  0  0  0  0  0  0  0  0
    4.5280   -2.7151   -0.2347 O   0  0  0  0  0  0  0  0  0  0  0  0
    3.3923    1.7637    0.1608 O   0  0  0  0  0  0  0  0  0  0  0  0
    0.5119    2.6883   -1.2725 O   0  0  0  0  0  0  0  0  0  0  0  0
   -0.5996    2.8281    0.7214 O   0  0  0  0  0  0  0  0  0  0  0  0
    1.6126    0.3537   -0.4834 N   0  0  0  0  0  0  0  0  0  0  0  0
   -5.1871   -0.6904   -0.4878 N   0  0  0  0  0  0  0  0  0  0  0  0
   -7.5529   -0.9274   -0.9833 N   0  0  0  0  0  0  0  0  0  0  0  0
    1.7539   -1.0997   -0.2455 C   0  0  1  0  0  0  0  0  0  0  0  0
    3.1884   -0.7825    0.2576 C   0  0  2  0  0  0  0  0  0  0  0  0
    0.5785   -1.4503    0.6737 C   0  0  0  0  0  0  0  0  0  0  0  0
    2.8525    0.6974   -0.0313 C   0  0  0  0  0  0  0  0  0  0  0  0
    4.3478   -1.3314   -0.5387 C   0  0  1  0  0  0  0  0  0  0  0  0
    0.4301    0.7981    0.0364 C   0  0  0  0  0  0  0  0  0  0  0  0
   -0.2233   -0.1733    0.6861 C   0  0  0  0  0  0  0  0  0  0  0  0
    5.6510   -0.5945   -0.2468 C   0  0  0  0  0  0  0  0  0  0  0  0
    0.0463    2.1990   -0.1020 C   0  0  0  0  0  0  0  0  0  0  0  0
   -2.8613   -0.4541    0.1641 C   0  0  0  0  0  0  0  0  0  0  0  0
   -4.3038   -0.3718    0.6376 C   0  0  0  0  0  0  0  0  0  0  0  0
   -6.4429   -0.6866   -0.2211 C   0  0  0  0  0  0  0  0  0  0  0  0
    1.7190   -1.6528   -1.1938 H   0  0  0  0  0  0  0  0  0  0  0  0
    3.3142   -0.9567    1.3354 H   0  0  0  0  0  0  0  0  0  0  0  0
    0.9196   -1.7182    1.6791 H   0  0  0  0  0  0  0  0  0  0  0  0
   -0.0034   -2.2790    0.2568 H   0  0  0  0  0  0  0  0  0  0  0  0
    4.1525   -1.2603   -1.6154 H   0  0  0  0  0  0  0  0  0  0  0  0
    6.4870   -1.0776   -0.7642 H   0  0  0  0  0  0  0  0  0  0  0  0
    5.6088    0.4516   -0.5621 H   0  0  0  0  0  0  0  0  0  0  0  0
    5.8817   -0.6226    0.8241 H   0  0  0  0  0  0  0  0  0  0  0  0
    3.7076   -3.1767   -0.4785 H   0  0  0  0  0  0  0  0  0  0  0  0
   -2.6447   -1.4627   -0.2059 H   0  0  0  0  0  0  0  0  0  0  0  0
   -2.7028    0.2416   -0.6680 H   0  0  0  0  0  0  0  0  0  0  0  0
    0.2716    3.6310   -1.3990 H   0  0  0  0  0  0  0  0  0  0  0  0
   -4.5248    0.6391    1.0031 H   0  0  0  0  0  0  0  0  0  0  0  0
   -4.4735   -1.0837    1.4556 H   0  0  0  0  0  0  0  0  0  0  0  0
   -6.7646   -0.4493    0.8095 H   0  0  0  0  0  0  0  0  0  0  0  0
   -8.4878   -0.8781   -0.5925 H   0  0  0  0  0  0  0  0  0  0  0  0
   -7.4727   -1.1648   -1.9662 H   0  0  0  0  0  0  0  0  0  0  0  0
  1 15  1  0  0  0  0
  1 18  1  0  0  0  0
  2 13  1  0  0  0  0
  2 29  1  0  0  0  0
  3 12  2  0  0  0  0
  4 17  1  0  0  0  0
  4 32  1  0  0  0  0
  5 17  2  0  0  0  0
  6  9  1  0  0  0  0
  6 12  1  0  0  0  0
  6 14  1  0  0  0  0
  7 19  1  0  0  0  0
  7 20  2  0  0  0  0
  8 20  1  0  0  0  0
  8 36  1  0  0  0  0
  8 37  1  0  0  0  0
  9 10  1  0  0  0  0
  9 11  1  0  0  0  0
  9 21  1  0  0  0  0
 10 12  1  0  0  0  0
 10 13  1  0  0  0  0
 10 22  1  0  0  0  0
 11 15  1  0  0  0  0
 11 23  1  0  0  0  0
 11 24  1  0  0  0  0
 13 16  1  0  0  0  0
 13 25  1  0  0  0  0
 14 15  2  0  0  0  0
 14 17  1  0  0  0  0
 16 26  1  0  0  0  0
 16 27  1  0  0  0  0
 16 28  1  0  0  0  0
 18 19  1  0  0  0  0
 18 30  1  0  0  0  0
 18 31  1  0  0  0  0
 19 33  1  0  0  0  0
 19 34  1  0  0  0  0
 20 35  1  0  0  0  0
M  END
> <PUBCHEM_COMPOUND_CID>
3695

> <PUBCHEM_CONFORMER_RMSD>
0.8

> <PUBCHEM_CONFORMER_DIVERSEORDER>
8
57
212
277
203
31
68
280
109
229
219
61
238
16
20
225
75
65
105
137
89
129
221
245
239
183
21
2
258
215
22
151
166
206
41
276
186
62
246
209
69
263
35
233
11
197
92
188
25
40
224
45
33
247
230
160
194
143
162
96
55
192
27
208
271
44
146
169
94
222
104
187
38
80
243
39
195
268
164
190
185
265
125
56
140
227
106
152
60
59
253
264
90
210
131
150
83
201
48
272
175
207
193
173
67
159
43
138
223
252
260
103
163
274
36
81
153
251
10
141
170
232
63
120
3
119
198
176
148
121
13
261
157
53
204
218
242
50
228
191
168
214
181
18
234
113
174
279
26
85
78
6
101
266
147
236
4
99
115
132
269
142
155
161
118
88
1
29
154
273
136
205
180
77
82
93
158
130
257
9
240
91
100
34
54
156
74
122
149
267
17
211
23
79
196
126
32
250
108
128
97
127
73
135
102
107
275
95
256
139
30
235
123
12
278
145
76
37
237
216
270
58
112
70
144
24
202
171
14
213
199
110
254
66
111
179
15
226
262
248
133
182
72
124
244
19
71
259
167
220
49
189
114
178
249
98
51
231
5
87
52
255
200
117
184
84
241
116
177
42
28
172
217
7
134
165
86
64
46
47

> <PUBCHEM_MMFF94_PARTIAL_CHARGES>
24
1 -0.33
10 0.05
11 0.14
12 0.58
13 0.28
14 0.12
15 -0.04
17 0.71
18 0.23
19 0.25
2 -0.68
20 0.44
29 0.4
3 -0.57
32 0.5
35 0.06
36 0.4
37 0.4
4 -0.65
5 -0.57
6 -0.39
7 -0.7
8 -0.85
9 0.22

> <PUBCHEM_EFFECTIVE_ROTOR_COUNT>
6.4

> <PUBCHEM_PHARMACOPHORE_FEATURES>
9
1 2 acceptor
1 2 donor
1 3 acceptor
1 4 acceptor
1 5 acceptor
1 8 donor
3 4 5 17 anion
3 7 8 20 cation
7 6 9 10 11 12 14 15 rings

> <PUBCHEM_HEAVY_ATOM_COUNT>
20

> <PUBCHEM_ATOM_DEF_STEREO_COUNT>
0

> <PUBCHEM_ATOM_UDEF_STEREO_COUNT>
3

> <PUBCHEM_BOND_DEF_STEREO_COUNT>
0

> <PUBCHEM_BOND_UDEF_STEREO_COUNT>
0

> <PUBCHEM_ISOTOPIC_ATOM_COUNT>
0

> <PUBCHEM_COMPONENT_COUNT>
1

> <PUBCHEM_CACTVS_TAUTO_COUNT>
2

> <PUBCHEM_CONFORMER_ID>
00000E6F00000008

> <PUBCHEM_MMFF94_ENERGY>
64.9235

> <PUBCHEM_FEATURE_SELFOVERLAP>
45.725

> <PUBCHEM_SHAPE_FINGERPRINT>
10693767 8 18338509755632839379
12236239 1 17989490719128729443
13134695 92 18271245023111298145
13862211 1 18409730625590038794
14170010 4 18337106873695657425
14508225 48 18114471067496820732
14863182 85 16415213286109273431
15183329 4 18335696101925249253
15475509 35 14620252796985640228
15848700 24 18407762529840635952
16945 1 18337686265015717082
17357779 13 18333730199902627196
17834072 8 17894912932025382467
18222031 100 18411699880768854938
200 152 18343584010167617155
20028762 73 18202563951672594814
20612939 158 18261116317890883125
20645477 70 18410293605397123939
21267235 1 18412271622863254715
221357 26 18260259747114874781
221490 88 18046077209358769035
22289505 5 18260536815407640893
23402539 116 18338239262728190243
23559900 14 18262240031126291162
23622692 118 17972312924525301122
2871803 45 18260267430067536115
29717793 49 18202285792937351447
3009799 131 18113336422672104978
3286 77 17704071768307458368
4340502 62 14477243751682104758
439807 62 17986384702546040167
46194498 28 17895470444929879437
465052 167 18273501160731202390
59755656 520 8862937256219982553
7471813 234 18202565103287812689
9971528 1 18410009970394644489

> <PUBCHEM_SHAPE_MULTIPOLES>
377.02
13.33
2.35
0.98
21.22
1.49
-0.13
-8.51
4.27
-1.92
0.29
0.64
0.09
-0.23

> <PUBCHEM_SHAPE_SELFOVERLAP>
769.689

> <PUBCHEM_SHAPE_VOLUME>
221.1

> <PUBCHEM_COORDINATE_TYPE>
2
5
10

$$$$
