2724484
  -OEChem-09252021243D

 22 23  0     1  0  0  0  0  0999 V2000
    1.0280    1.6522   -0.7117 O   0  0  0  0  0  0  0  0  0  0  0  0
    1.0740   -0.6554    1.3812 O   0  0  0  0  0  0  0  0  0  0  0  0
   -1.8406    0.7094   -0.3118 O   0  0  0  0  0  0  0  0  0  0  0  0
    2.7236   -1.5501   -1.0178 O   0  0  0  0  0  0  0  0  0  0  0  0
   -2.6810   -0.8445    1.0209 O   0  5  0  0  0  0  0  0  0  0  0  0
   -3.2672   -0.8606   -1.1303 O   0  0  0  0  0  0  0  0  0  0  0  0
   -2.6723   -0.4310   -0.1392 N   0  3  0  0  0  0  0  0  0  0  0  0
    0.2303   -0.3700    0.2543 C   0  0  2  0  0  0  0  0  0  0  0  0
    1.1129    0.2232   -0.8291 C   0  0  2  0  0  0  0  0  0  0  0  0
   -0.7332    0.7444    0.5818 C   0  0  1  0  0  0  0  0  0  0  0  0
    2.4969   -0.2574   -0.4670 C   0  0  1  0  0  0  0  0  0  0  0  0
    0.0918    1.9895    0.3243 C   0  0  0  0  0  0  0  0  0  0  0  0
    2.4367   -0.3497    1.0446 C   0  0  0  0  0  0  0  0  0  0  0  0
   -0.2186   -1.3146   -0.0652 H   0  0  0  0  0  0  0  0  0  0  0  0
    0.7874   -0.0572   -1.8357 H   0  0  0  0  0  0  0  0  0  0  0  0
   -1.0756    0.7636    1.6233 H   0  0  0  0  0  0  0  0  0  0  0  0
    3.3033    0.4057   -0.7940 H   0  0  0  0  0  0  0  0  0  0  0  0
   -0.5052    2.8443   -0.0059 H   0  0  0  0  0  0  0  0  0  0  0  0
    0.6723    2.2757    1.2075 H   0  0  0  0  0  0  0  0  0  0  0  0
    3.0839   -1.1285    1.4577 H   0  0  0  0  0  0  0  0  0  0  0  0
    2.6819    0.6089    1.5133 H   0  0  0  0  0  0  0  0  0  0  0  0
    2.7046   -1.4605   -1.9860 H   0  0  0  0  0  0  0  0  0  0  0  0
  1  9  1  0  0  0  0
  1 12  1  0  0  0  0
  2  8  1  0  0  0  0
  2 13  1  0  0  0  0
  3  7  1  0  0  0  0
  3 10  1  0  0  0  0
  4 11  1  0  0  0  0
  4 22  1  0  0  0  0
  5  7  1  0  0  0  0
  6  7  2  0  0  0  0
  8  9  1  0  0  0  0
  8 10  1  0  0  0  0
  8 14  1  0  0  0  0
  9 11  1  0  0  0  0
  9 15  1  0  0  0  0
 10 12  1  0  0  0  0
 10 16  1  0  0  0  0
 11 13  1  0  0  0  0
 11 17  1  0  0  0  0
 12 18  1  0  0  0  0
 12 19  1  0  0  0  0
 13 20  1  0  0  0  0
 13 21  1  0  0  0  0
M  CHG  2   5  -1   7   1
M  END
> <PUBCHEM_COMPOUND_CID>
2724484

> <PUBCHEM_CONFORMER_RMSD>
0.6

> <PUBCHEM_CONFORMER_DIVERSEORDER>
1
47
9
19
14
43
39
22
40
41
33
17
32
35
20
6
16
44
45
12
8
31
18
13
25
15
37
10
24
7
5
36
30
46
11
38
4
3
23
27
2
42
34
21
29
28
26

> <PUBCHEM_MMFF94_PARTIAL_CHARGES>
14
1 -0.56
10 0.28
11 0.28
12 0.28
13 0.28
2 -0.56
22 0.4
3 -0.27
4 -0.68
5 -0.52
6 -0.52
7 1.03
8 0.28
9 0.28

> <PUBCHEM_EFFECTIVE_ROTOR_COUNT>
3.2

> <PUBCHEM_PHARMACOPHORE_FEATURES>
8
1 1 acceptor
1 2 acceptor
1 4 acceptor
1 4 donor
1 5 acceptor
1 6 acceptor
5 1 8 9 10 12 rings
5 2 8 9 11 13 rings

> <PUBCHEM_HEAVY_ATOM_COUNT>
13

> <PUBCHEM_ATOM_DEF_STEREO_COUNT>
0

> <PUBCHEM_ATOM_UDEF_STEREO_COUNT>
4

> <PUBCHEM_BOND_DEF_STEREO_COUNT>
0

> <PUBCHEM_BOND_UDEF_STEREO_COUNT>
0

> <PUBCHEM_ISOTOPIC_ATOM_COUNT>
0

> <PUBCHEM_COMPONENT_COUNT>
1

> <PUBCHEM_CACTVS_TAUTO_COUNT>
1

> <PUBCHEM_CONFORMER_ID>
0029928400000001

> <PUBCHEM_MMFF94_ENERGY>
42.1366

> <PUBCHEM_FEATURE_SELFOVERLAP>
41.376

> <PUBCHEM_SHAPE_FINGERPRINT>
11769659 78 18059293145803394846
12423570 1 16304281113978047824
12897270 3 17240202153259896455
12932764 1 17095527322460964779
14128692 85 18408890641460561125
16945 1 18267594670160496692
20281407 28 17774725268484621718
20361792 2 18413107268853593653
20645477 70 18266452299602966759
20653085 51 13334742284411835103
20653091 64 18261396692839111832
20711985 344 18121499055284229889
21028194 46 9799689303028061093
23402539 116 18261679169265668070
276578 36 9439409067947901572
81228 2 18194117413169205553

> <PUBCHEM_SHAPE_MULTIPOLES>
227.34
4.3
1.5
1.17
2.21
0.62
-0.13
-2.22
0.63
-0.15
0.17
-0.2
-0.23
-0.01

> <PUBCHEM_SHAPE_SELFOVERLAP>
477.051

> <PUBCHEM_SHAPE_VOLUME>
129.1

> <PUBCHEM_COORDINATE_TYPE>
2
5
10

$$$$
