68733
  -OEChem-09252021243D

 66 67  0     0  0  0  0  0  0999 V2000
    0.0650   -3.0905    0.2298 O   0  0  0  0  0  0  0  0  0  0  0  0
   -2.7120    2.5604   -0.6345 O   0  0  0  0  0  0  0  0  0  0  0  0
    4.1658    1.3576   -0.9879 O   0  0  0  0  0  0  0  0  0  0  0  0
    0.8761   -1.7837   -1.5005 O   0  0  0  0  0  0  0  0  0  0  0  0
   -3.7398    1.8930    1.3296 O   0  0  0  0  0  0  0  0  0  0  0  0
    2.7873   -0.1570    0.0812 O   0  0  0  0  0  0  0  0  0  0  0  0
   -3.7224   -1.8392   -0.9143 N   0  0  0  0  0  0  0  0  0  0  0  0
   -1.5214   -0.1146   -0.4691 C   0  0  0  0  0  0  0  0  0  0  0  0
   -1.3721   -1.6090   -0.7710 C   0  0  0  0  0  0  0  0  0  0  0  0
   -2.9804    0.3125   -0.2650 C   0  0  0  0  0  0  0  0  0  0  0  0
   -0.7082    0.2474    0.7406 C   0  0  0  0  0  0  0  0  0  0  0  0
   -2.4530   -2.3870   -1.0041 C   0  0  0  0  0  0  0  0  0  0  0  0
   -3.9997   -0.5432   -0.5071 C   0  0  0  0  0  0  0  0  0  0  0  0
    0.3496    1.1534    0.6625 C   0  0  0  0  0  0  0  0  0  0  0  0
   -1.0307   -0.3445    1.9619 C   0  0  0  0  0  0  0  0  0  0  0  0
   -0.0047   -2.1531   -0.7460 C   0  0  0  0  0  0  0  0  0  0  0  0
   -3.2016    1.6692    0.2611 C   0  0  0  0  0  0  0  0  0  0  0  0
   -2.4157   -3.8484   -1.3607 C   0  0  0  0  0  0  0  0  0  0  0  0
   -5.4636   -0.2183   -0.3799 C   0  0  0  0  0  0  0  0  0  0  0  0
    1.0847    1.4676    1.8058 C   0  0  0  0  0  0  0  0  0  0  0  0
   -0.2958   -0.0302    3.1051 C   0  0  0  0  0  0  0  0  0  0  0  0
    0.7114    1.7883   -0.5979 C   0  0  0  0  0  0  0  0  0  0  0  0
    0.7618    0.8757    3.0269 C   0  0  0  0  0  0  0  0  0  0  0  0
    5.3213    0.6712   -0.4949 C   0  0  0  0  0  0  0  0  0  0  0  0
    1.9042    1.6631   -1.2178 C   0  0  0  0  0  0  0  0  0  0  0  0
    6.5523    1.4063   -1.0207 C   0  0  0  0  0  0  0  0  0  0  0  0
    5.2911   -0.7659   -1.0131 C   0  0  0  0  0  0  0  0  0  0  0  0
    5.2897    0.7005    1.0325 C   0  0  0  0  0  0  0  0  0  0  0  0
    1.3434   -3.7165    0.3798 C   0  0  0  0  0  0  0  0  0  0  0  0
   -2.8534    3.9352   -0.2619 C   0  0  0  0  0  0  0  0  0  0  0  0
    2.9688    0.8276   -0.6173 C   0  0  0  0  0  0  0  0  0  0  0  0
    1.2667   -4.7324    1.4994 C   0  0  0  0  0  0  0  0  0  0  0  0
   -2.2648    4.8046   -1.3525 C   0  0  0  0  0  0  0  0  0  0  0  0
   -1.1757    0.4017   -1.3723 H   0  0  0  0  0  0  0  0  0  0  0  0
   -4.5105   -2.4528   -1.0892 H   0  0  0  0  0  0  0  0  0  0  0  0
   -1.8497   -1.0537    2.0506 H   0  0  0  0  0  0  0  0  0  0  0  0
   -3.0657   -4.0461   -2.2205 H   0  0  0  0  0  0  0  0  0  0  0  0
   -1.4166   -4.1965   -1.6376 H   0  0  0  0  0  0  0  0  0  0  0  0
   -2.7682   -4.4518   -0.5178 H   0  0  0  0  0  0  0  0  0  0  0  0
   -5.9058   -0.7876    0.4444 H   0  0  0  0  0  0  0  0  0  0  0  0
   -5.6523    0.8431   -0.1971 H   0  0  0  0  0  0  0  0  0  0  0  0
   -5.9917   -0.4819   -1.3030 H   0  0  0  0  0  0  0  0  0  0  0  0
    1.9051    2.1809    1.7738 H   0  0  0  0  0  0  0  0  0  0  0  0
   -0.5471   -0.4907    4.0560 H   0  0  0  0  0  0  0  0  0  0  0  0
   -0.0440    2.4169   -1.0586 H   0  0  0  0  0  0  0  0  0  0  0  0
    1.3324    1.1221    3.9175 H   0  0  0  0  0  0  0  0  0  0  0  0
    2.1132    2.1983   -2.1371 H   0  0  0  0  0  0  0  0  0  0  0  0
    7.4824    0.9376   -0.6832 H   0  0  0  0  0  0  0  0  0  0  0  0
    6.5529    1.4282   -2.1166 H   0  0  0  0  0  0  0  0  0  0  0  0
    6.5510    2.4515   -0.6904 H   0  0  0  0  0  0  0  0  0  0  0  0
    6.2725   -1.2388   -0.8874 H   0  0  0  0  0  0  0  0  0  0  0  0
    5.0395   -0.7933   -2.0797 H   0  0  0  0  0  0  0  0  0  0  0  0
    4.5812   -1.4184   -0.4984 H   0  0  0  0  0  0  0  0  0  0  0  0
    6.2671    0.4184    1.4417 H   0  0  0  0  0  0  0  0  0  0  0  0
    4.5693    0.0134    1.4836 H   0  0  0  0  0  0  0  0  0  0  0  0
    5.0485    1.7048    1.3998 H   0  0  0  0  0  0  0  0  0  0  0  0
    1.6175   -4.2162   -0.5560 H   0  0  0  0  0  0  0  0  0  0  0  0
    2.0959   -2.9573    0.6206 H   0  0  0  0  0  0  0  0  0  0  0  0
   -3.9157    4.1709   -0.1332 H   0  0  0  0  0  0  0  0  0  0  0  0
   -2.3238    4.1143    0.6806 H   0  0  0  0  0  0  0  0  0  0  0  0
    2.2293   -5.2313    1.6417 H   0  0  0  0  0  0  0  0  0  0  0  0
    0.5048   -5.4882    1.2820 H   0  0  0  0  0  0  0  0  0  0  0  0
    0.9762   -4.2492    2.4382 H   0  0  0  0  0  0  0  0  0  0  0  0
   -2.3682    5.8648   -1.1048 H   0  0  0  0  0  0  0  0  0  0  0  0
   -2.7639    4.6144   -2.3084 H   0  0  0  0  0  0  0  0  0  0  0  0
   -1.2035    4.5794   -1.4977 H   0  0  0  0  0  0  0  0  0  0  0  0
  1 16  1  0  0  0  0
  1 29  1  0  0  0  0
  2 17  1  0  0  0  0
  2 30  1  0  0  0  0
  3 24  1  0  0  0  0
  3 31  1  0  0  0  0
  4 16  2  0  0  0  0
  5 17  2  0  0  0  0
  6 31  2  0  0  0  0
  7 12  1  0  0  0  0
  7 13  1  0  0  0  0
  7 35  1  0  0  0  0
  8  9  1  0  0  0  0
  8 10  1  0  0  0  0
  8 11  1  0  0  0  0
  8 34  1  0  0  0  0
  9 12  2  0  0  0  0
  9 16  1  0  0  0  0
 10 13  2  0  0  0  0
 10 17  1  0  0  0  0
 11 14  1  0  0  0  0
 11 15  2  0  0  0  0
 12 18  1  0  0  0  0
 13 19  1  0  0  0  0
 14 20  2  0  0  0  0
 14 22  1  0  0  0  0
 15 21  1  0  0  0  0
 15 36  1  0  0  0  0
 18 37  1  0  0  0  0
 18 38  1  0  0  0  0
 18 39  1  0  0  0  0
 19 40  1  0  0  0  0
 19 41  1  0  0  0  0
 19 42  1  0  0  0  0
 20 23  1  0  0  0  0
 20 43  1  0  0  0  0
 21 23  2  0  0  0  0
 21 44  1  0  0  0  0
 22 25  2  3  0  0  0
 22 45  1  0  0  0  0
 23 46  1  0  0  0  0
 24 26  1  0  0  0  0
 24 27  1  0  0  0  0
 24 28  1  0  0  0  0
 25 31  1  0  0  0  0
 25 47  1  0  0  0  0
 26 48  1  0  0  0  0
 26 49  1  0  0  0  0
 26 50  1  0  0  0  0
 27 51  1  0  0  0  0
 27 52  1  0  0  0  0
 27 53  1  0  0  0  0
 28 54  1  0  0  0  0
 28 55  1  0  0  0  0
 28 56  1  0  0  0  0
 29 32  1  0  0  0  0
 29 57  1  0  0  0  0
 29 58  1  0  0  0  0
 30 33  1  0  0  0  0
 30 59  1  0  0  0  0
 30 60  1  0  0  0  0
 32 61  1  0  0  0  0
 32 62  1  0  0  0  0
 32 63  1  0  0  0  0
 33 64  1  0  0  0  0
 33 65  1  0  0  0  0
 33 66  1  0  0  0  0
M  END
> <PUBCHEM_COMPOUND_CID>
68733

> <PUBCHEM_CONFORMER_RMSD>
1

> <PUBCHEM_CONFORMER_DIVERSEORDER>
1
25
18
21
24
19
29
6
10
35
11
17
31
27
7
26
23
30
15
12
14
8
9
36
20
32
16
22
2
13
33
4
3
5
28
34

> <PUBCHEM_MMFF94_PARTIAL_CHARGES>
35
1 -0.43
10 -0.12
11 -0.14
12 -0.04
13 -0.04
14 0.03
15 -0.15
16 0.71
17 0.71
18 0.14
19 0.14
2 -0.43
20 -0.15
21 -0.15
22 -0.18
23 -0.15
24 0.28
25 -0.14
29 0.28
3 -0.43
30 0.28
31 0.71
35 0.4
36 0.15
4 -0.57
43 0.15
44 0.15
45 0.15
46 0.15
47 0.15
5 -0.57
6 -0.57
7 -0.6
8 0.42
9 -0.12

> <PUBCHEM_EFFECTIVE_ROTOR_COUNT>
11.4

> <PUBCHEM_PHARMACOPHORE_FEATURES>
8
1 4 acceptor
1 5 acceptor
1 6 acceptor
1 7 cation
1 7 donor
4 24 26 27 28 hydrophobe
6 11 14 15 20 21 23 rings
6 7 8 9 10 12 13 rings

> <PUBCHEM_HEAVY_ATOM_COUNT>
33

> <PUBCHEM_ATOM_DEF_STEREO_COUNT>
0

> <PUBCHEM_ATOM_UDEF_STEREO_COUNT>
0

> <PUBCHEM_BOND_DEF_STEREO_COUNT>
0

> <PUBCHEM_BOND_UDEF_STEREO_COUNT>
1

> <PUBCHEM_ISOTOPIC_ATOM_COUNT>
0

> <PUBCHEM_COMPONENT_COUNT>
1

> <PUBCHEM_CACTVS_TAUTO_COUNT>
2

> <PUBCHEM_CONFORMER_ID>
00010C7D00000001

> <PUBCHEM_MMFF94_ENERGY>
94.415

> <PUBCHEM_FEATURE_SELFOVERLAP>
40.597

> <PUBCHEM_SHAPE_FINGERPRINT>
10165383 225 18058742303932941729
10190108 129 18339372980378196363
12058002 1 17169295687666546287
12422481 6 17829586398091229786
12592029 89 18408327661569073418
12788726 201 18335698360160655952
13140716 1 18125711534050077859
13617811 41 18336530703774948461
140371 6 17044273832813952471
14117953 113 17186715022974252726
14251751 93 18334289842747314741
14251757 17 17489302023023173634
14713325 29 18335995202741153465
14955137 171 18120382205859696273
15420108 30 16904988262859487722
15463212 79 18408600392261264824
19958102 18 18271529710490996596
20642791 178 17980472369912073779
20691752 17 18053924419698678263
21033650 10 18190202117283316804
22393880 68 18197784306291264836
23419403 2 16614433527004364136
23559900 14 17844523508220392320
244849 19 17318769800964111569
350125 39 18272370829013864561
469060 322 18121807142126421859
5265222 85 18198630024270641108
57527306 92 17821728360344897533
57527585 103 17905930133289411414
70251023 43 17257649453395241431
7226269 152 17418108610522365649

> <PUBCHEM_SHAPE_MULTIPOLES>
638.93
9.8
5.12
2.08
12.08
1.82
-1.94
-3.93
3.94
-3.48
1.13
0.4
-0.06
-1.02

> <PUBCHEM_SHAPE_SELFOVERLAP>
1341.053

> <PUBCHEM_SHAPE_VOLUME>
361.1

> <PUBCHEM_COORDINATE_TYPE>
2
5
10

$$$$
