4478247
  -OEChem-09252021253D

 62 64  0     1  0  0  0  0  0999 V2000
    1.1278    0.5656    1.3873 O   0  0  0  0  0  0  0  0  0  0  0  0
   -0.7943    3.1359   -1.7947 O   0  0  0  0  0  0  0  0  0  0  0  0
    6.8053    0.0499    1.3332 O   0  0  0  0  0  0  0  0  0  0  0  0
    5.5020   -1.5750    2.2407 O   0  0  0  0  0  0  0  0  0  0  0  0
    1.7587    1.6711   -0.5235 N   0  0  0  0  0  0  0  0  0  0  0  0
    3.4087   -1.0364    0.6623 N   0  0  0  0  0  0  0  0  0  0  0  0
   -1.0153    3.1838    0.5083 N   0  0  0  0  0  0  0  0  0  0  0  0
   -5.2810   -2.5736   -0.5062 N   0  0  0  0  0  0  0  0  0  0  0  0
   -5.2018   -2.4814    1.8276 N   0  0  0  0  0  0  0  0  0  0  0  0
    1.3357   -1.7853   -0.4040 C   0  0  0  0  0  0  0  0  0  0  0  0
    2.3531   -0.6549   -0.2617 C   0  0  1  0  0  0  0  0  0  0  0  0
    0.1801   -1.3622   -1.3209 C   0  0  0  0  0  0  0  0  0  0  0  0
    2.0110   -3.0595   -0.9286 C   0  0  0  0  0  0  0  0  0  0  0  0
    1.2324    3.0184   -0.4406 C   0  0  1  0  0  0  0  0  0  0  0  0
   -0.8241   -2.4949   -1.5215 C   0  0  0  0  0  0  0  0  0  0  0  0
    1.0037   -4.1894   -1.1300 C   0  0  0  0  0  0  0  0  0  0  0  0
   -0.1478   -3.7623   -2.0348 C   0  0  0  0  0  0  0  0  0  0  0  0
    2.3702    1.8496   -1.8252 C   0  0  0  0  0  0  0  0  0  0  0  0
    2.1579    3.3537   -1.6165 C   0  0  0  0  0  0  0  0  0  0  0  0
    1.6867    0.5761    0.2917 C   0  0  0  0  0  0  0  0  0  0  0  0
   -0.2852    3.1205   -0.6693 C   0  0  0  0  0  0  0  0  0  0  0  0
    4.6033   -0.2272    0.4557 C   0  0  0  0  0  0  0  0  0  0  0  0
   -2.4574    3.2750    0.5418 C   0  0  0  0  0  0  0  0  0  0  0  0
    5.6616   -0.6753    1.4255 C   0  0  0  0  0  0  0  0  0  0  0  0
   -3.1054    1.9211    0.5754 C   0  0  0  0  0  0  0  0  0  0  0  0
   -3.4352    1.2766   -0.6169 C   0  0  0  0  0  0  0  0  0  0  0  0
   -3.3787    1.3082    1.7982 C   0  0  0  0  0  0  0  0  0  0  0  0
   -4.0383    0.0193   -0.5864 C   0  0  0  0  0  0  0  0  0  0  0  0
   -3.9819    0.0509    1.8288 C   0  0  0  0  0  0  0  0  0  0  0  0
   -4.3116   -0.5936    0.6364 C   0  0  0  0  0  0  0  0  0  0  0  0
   -4.9401   -1.9047    0.6679 C   0  0  0  0  0  0  0  0  0  0  0  0
    0.9055   -2.0138    0.5827 H   0  0  0  0  0  0  0  0  0  0  0  0
    2.7808   -0.4895   -1.2550 H   0  0  0  0  0  0  0  0  0  0  0  0
   -0.3580   -0.5024   -0.9061 H   0  0  0  0  0  0  0  0  0  0  0  0
    0.5713   -1.0522   -2.2985 H   0  0  0  0  0  0  0  0  0  0  0  0
    2.7822   -3.4095   -0.2329 H   0  0  0  0  0  0  0  0  0  0  0  0
    2.5126   -2.8525   -1.8828 H   0  0  0  0  0  0  0  0  0  0  0  0
    1.5517    3.5197    0.4822 H   0  0  0  0  0  0  0  0  0  0  0  0
   -1.5994   -2.1789   -2.2287 H   0  0  0  0  0  0  0  0  0  0  0  0
   -1.3281   -2.7084   -0.5708 H   0  0  0  0  0  0  0  0  0  0  0  0
    0.6066   -4.5020   -0.1563 H   0  0  0  0  0  0  0  0  0  0  0  0
    1.5085   -5.0603   -1.5633 H   0  0  0  0  0  0  0  0  0  0  0  0
   -0.8837   -4.5715   -2.1025 H   0  0  0  0  0  0  0  0  0  0  0  0
    0.2308   -3.5883   -3.0495 H   0  0  0  0  0  0  0  0  0  0  0  0
    1.7871    1.4030   -2.6353 H   0  0  0  0  0  0  0  0  0  0  0  0
    3.4202    1.5561   -1.8920 H   0  0  0  0  0  0  0  0  0  0  0  0
    1.7032    3.8762   -2.4634 H   0  0  0  0  0  0  0  0  0  0  0  0
    3.0651    3.8955   -1.3234 H   0  0  0  0  0  0  0  0  0  0  0  0
    3.0861   -0.9732    1.6273 H   0  0  0  0  0  0  0  0  0  0  0  0
    4.9971   -0.3671   -0.5565 H   0  0  0  0  0  0  0  0  0  0  0  0
    4.4055    0.8334    0.6420 H   0  0  0  0  0  0  0  0  0  0  0  0
   -0.5236    3.1431    1.3963 H   0  0  0  0  0  0  0  0  0  0  0  0
   -2.7297    3.8536    1.4319 H   0  0  0  0  0  0  0  0  0  0  0  0
   -2.8082    3.8447   -0.3268 H   0  0  0  0  0  0  0  0  0  0  0  0
    7.4778   -0.2429    1.9846 H   0  0  0  0  0  0  0  0  0  0  0  0
   -3.2305    1.7434   -1.5765 H   0  0  0  0  0  0  0  0  0  0  0  0
   -3.1246    1.7997    2.7337 H   0  0  0  0  0  0  0  0  0  0  0  0
   -4.2728   -0.4371   -1.5416 H   0  0  0  0  0  0  0  0  0  0  0  0
   -4.1801   -0.3985    2.7980 H   0  0  0  0  0  0  0  0  0  0  0  0
   -5.7205   -3.4874   -0.4637 H   0  0  0  0  0  0  0  0  0  0  0  0
   -5.1144   -2.2058   -1.4345 H   0  0  0  0  0  0  0  0  0  0  0  0
   -5.6417   -3.3899    1.6434 H   0  0  0  0  0  0  0  0  0  0  0  0
  1 20  2  0  0  0  0
  2 21  2  0  0  0  0
  3 24  1  0  0  0  0
  3 55  1  0  0  0  0
  4 24  2  0  0  0  0
  5 14  1  0  0  0  0
  5 18  1  0  0  0  0
  5 20  1  0  0  0  0
  6 11  1  0  0  0  0
  6 22  1  0  0  0  0
  6 49  1  0  0  0  0
  7 21  1  0  0  0  0
  7 23  1  0  0  0  0
  7 52  1  0  0  0  0
  8 31  1  0  0  0  0
  8 60  1  0  0  0  0
  8 61  1  0  0  0  0
  9 31  2  0  0  0  0
  9 62  1  0  0  0  0
 10 11  1  0  0  0  0
 10 12  1  0  0  0  0
 10 13  1  0  0  0  0
 10 32  1  0  0  0  0
 11 20  1  0  0  0  0
 11 33  1  0  0  0  0
 12 15  1  0  0  0  0
 12 34  1  0  0  0  0
 12 35  1  0  0  0  0
 13 16  1  0  0  0  0
 13 36  1  0  0  0  0
 13 37  1  0  0  0  0
 14 19  1  0  0  0  0
 14 21  1  0  0  0  0
 14 38  1  0  0  0  0
 15 17  1  0  0  0  0
 15 39  1  0  0  0  0
 15 40  1  0  0  0  0
 16 17  1  0  0  0  0
 16 41  1  0  0  0  0
 16 42  1  0  0  0  0
 17 43  1  0  0  0  0
 17 44  1  0  0  0  0
 18 19  1  0  0  0  0
 18 45  1  0  0  0  0
 18 46  1  0  0  0  0
 19 47  1  0  0  0  0
 19 48  1  0  0  0  0
 22 24  1  0  0  0  0
 22 50  1  0  0  0  0
 22 51  1  0  0  0  0
 23 25  1  0  0  0  0
 23 53  1  0  0  0  0
 23 54  1  0  0  0  0
 25 26  2  0  0  0  0
 25 27  1  0  0  0  0
 26 28  1  0  0  0  0
 26 56  1  0  0  0  0
 27 29  2  0  0  0  0
 27 57  1  0  0  0  0
 28 30  2  0  0  0  0
 28 58  1  0  0  0  0
 29 30  1  0  0  0  0
 29 59  1  0  0  0  0
 30 31  1  0  0  0  0
M  END
> <PUBCHEM_COMPOUND_CID>
4478247

> <PUBCHEM_CONFORMER_RMSD>
1.2

> <PUBCHEM_CONFORMER_DIVERSEORDER>
1
94
86
39
6
99
72
5
26
56
67
9
3
38
87
22
37
20
60
36
7
96
40
80
91
41
85
50
43
95
27
53
30
49
102
55
69
48
45
90
73
33
47
75
34
65
13
101
83
24
70
77
57
98
78
64
59
31
92
44
8
28
79
25
29
12
17
10
62
74
4
81
42
58
97
61
21
11
32
71
23
89
14
68
100
46
66
76
54
88
18
2
15
16
51
82
52
93
19
35
84
63

> <PUBCHEM_MMFF94_PARTIAL_CHARGES>
34
1 -0.57
11 0.33
14 0.28
18 0.22
2 -0.57
20 0.57
21 0.58
22 0.33
23 0.44
24 0.66
25 -0.14
26 -0.15
27 -0.15
28 -0.15
29 -0.15
3 -0.65
30 0.09
31 0.41
4 -0.57
49 0.36
5 -0.51
52 0.37
55 0.5
56 0.15
57 0.15
58 0.15
59 0.15
6 -0.9
60 0.4
61 0.4
62 0.4
7 -0.73
8 -0.85
9 -0.85

> <PUBCHEM_EFFECTIVE_ROTOR_COUNT>
13

> <PUBCHEM_PHARMACOPHORE_FEATURES>
14
1 1 acceptor
1 2 acceptor
1 3 acceptor
1 4 acceptor
1 6 cation
1 6 donor
1 7 donor
1 8 donor
1 9 donor
3 3 4 24 anion
3 8 9 31 cation
4 5 14 18 19 rings
6 10 12 13 15 16 17 rings
6 25 26 27 28 29 30 rings

> <PUBCHEM_HEAVY_ATOM_COUNT>
31

> <PUBCHEM_ATOM_DEF_STEREO_COUNT>
0

> <PUBCHEM_ATOM_UDEF_STEREO_COUNT>
2

> <PUBCHEM_BOND_DEF_STEREO_COUNT>
0

> <PUBCHEM_BOND_UDEF_STEREO_COUNT>
0

> <PUBCHEM_ISOTOPIC_ATOM_COUNT>
0

> <PUBCHEM_COMPONENT_COUNT>
1

> <PUBCHEM_CACTVS_TAUTO_COUNT>
2

> <PUBCHEM_CONFORMER_ID>
0044552700000001

> <PUBCHEM_MMFF94_ENERGY>
58.6933

> <PUBCHEM_FEATURE_SELFOVERLAP>
71.147

> <PUBCHEM_SHAPE_FINGERPRINT>
10675989 125 15894182565953790711
10815517 723 18130496548208567542
1100329 8 17549832530629817461
12107698 1 18260264183341279475
12422481 6 18125427619579890250
12633257 1 18261408736396538171
12839892 36 18340204086113069616
13122387 1 18340219530920798959
14117953 113 18342458149812480847
14955137 171 18410576171928102054
15351339 4 16616169123964670775
17809404 112 18266172834348833573
19319366 153 17612043971754444573
21133410 52 18193833976051706622
255183 313 18129641059943710514
392239 28 17561078150642696651
437795 70 17337351848178992997
4403749 210 18268972251389259120
469060 322 18126818591381505421
57527293 21 17971195825111585744
6287921 2 18057349261180752887

> <PUBCHEM_SHAPE_MULTIPOLES>
589.58
11.23
5.42
1.99
3.32
0.74
-0.24
4.6
-8.51
-1.11
3.02
0.82
0.33
-0.73

> <PUBCHEM_SHAPE_SELFOVERLAP>
1228.641

> <PUBCHEM_SHAPE_VOLUME>
332.9

> <PUBCHEM_COORDINATE_TYPE>
2
5
10

$$$$
