4183806
  -OEChem-09252021263D

 65 65  0     1  0  0  0  0  0999 V2000
    4.4081    3.7847    1.2511 O   0  0  0  0  0  0  0  0  0  0  0  0
    1.2713    3.6432   -1.5105 O   0  0  0  0  0  0  0  0  0  0  0  0
    3.5207   -3.5123    1.3606 O   0  0  0  0  0  0  0  0  0  0  0  0
   -7.8853    0.7451    0.1988 O   0  0  0  0  0  0  0  0  0  0  0  0
   -6.5372   -1.0636   -0.2824 O   0  0  0  0  0  0  0  0  0  0  0  0
    1.9279    2.2706    0.3824 C   0  0  2  0  0  0  0  0  0  0  0  0
    3.3390    1.6900    0.6253 C   0  0  2  0  0  0  0  0  0  0  0  0
    4.2799    2.8293    0.2001 C   0  0  1  0  0  0  0  0  0  0  0  0
    3.6277    3.4739   -1.0242 C   0  0  0  0  0  0  0  0  0  0  0  0
    0.8153    1.2625    0.1551 C   0  0  0  0  0  0  0  0  0  0  0  0
    2.1618    3.1820   -0.8070 C   0  0  0  0  0  0  0  0  0  0  0  0
    3.6522    0.4381   -0.1399 C   0  0  0  0  0  0  0  0  0  0  0  0
   -0.5619    1.8815    0.3966 C   0  0  0  0  0  0  0  0  0  0  0  0
   -1.6811    0.8726    0.1333 C   0  0  0  0  0  0  0  0  0  0  0  0
    4.0025   -0.7211    0.4364 C   0  0  0  0  0  0  0  0  0  0  0  0
    3.3919   -3.1745   -0.0237 C   0  0  2  0  0  0  0  0  0  0  0  0
    4.3230   -1.9748   -0.3329 C   0  0  0  0  0  0  0  0  0  0  0  0
   -3.0593    1.5033    0.3432 C   0  0  0  0  0  0  0  0  0  0  0  0
    1.9269   -2.7472   -0.2894 C   0  0  0  0  0  0  0  0  0  0  0  0
    3.7746   -4.4140   -0.8397 C   0  0  0  0  0  0  0  0  0  0  0  0
   -4.1792    0.5009    0.0466 C   0  0  0  0  0  0  0  0  0  0  0  0
    0.8785   -3.8344   -0.0171 C   0  0  0  0  0  0  0  0  0  0  0  0
   -0.5254   -3.3509   -0.3873 C   0  0  0  0  0  0  0  0  0  0  0  0
   -5.5699    1.1111    0.2206 C   0  0  0  0  0  0  0  0  0  0  0  0
   -1.5675   -4.4329   -0.1518 C   0  0  0  0  0  0  0  0  0  0  0  0
   -6.6886    0.1170    0.0003 C   0  0  0  0  0  0  0  0  0  0  0  0
   -9.0460   -0.0802    0.0556 C   0  0  0  0  0  0  0  0  0  0  0  0
    1.6821    2.9247    1.2303 H   0  0  0  0  0  0  0  0  0  0  0  0
    3.4475    1.4984    1.7012 H   0  0  0  0  0  0  0  0  0  0  0  0
    5.2909    2.4753   -0.0308 H   0  0  0  0  0  0  0  0  0  0  0  0
    3.7935    4.5525   -1.0756 H   0  0  0  0  0  0  0  0  0  0  0  0
    3.9396    2.9798   -1.9488 H   0  0  0  0  0  0  0  0  0  0  0  0
    0.9334    0.4222    0.8498 H   0  0  0  0  0  0  0  0  0  0  0  0
    0.8598    0.8563   -0.8630 H   0  0  0  0  0  0  0  0  0  0  0  0
    3.5827    0.4839   -1.2244 H   0  0  0  0  0  0  0  0  0  0  0  0
   -0.6291    2.2363    1.4325 H   0  0  0  0  0  0  0  0  0  0  0  0
   -0.7096    2.7533   -0.2494 H   0  0  0  0  0  0  0  0  0  0  0  0
   -1.6024    0.4977   -0.8945 H   0  0  0  0  0  0  0  0  0  0  0  0
   -1.5650    0.0110    0.8017 H   0  0  0  0  0  0  0  0  0  0  0  0
    4.0786   -0.7776    1.5192 H   0  0  0  0  0  0  0  0  0  0  0  0
    5.3554   -2.2478   -0.0779 H   0  0  0  0  0  0  0  0  0  0  0  0
    4.3101   -1.7739   -1.4120 H   0  0  0  0  0  0  0  0  0  0  0  0
    4.9828    4.4990    0.9270 H   0  0  0  0  0  0  0  0  0  0  0  0
   -3.1690    2.3758   -0.3122 H   0  0  0  0  0  0  0  0  0  0  0  0
   -3.1490    1.8602    1.3762 H   0  0  0  0  0  0  0  0  0  0  0  0
    1.8312   -2.4084   -1.3291 H   0  0  0  0  0  0  0  0  0  0  0  0
    1.6637   -1.9001    0.3549 H   0  0  0  0  0  0  0  0  0  0  0  0
    3.5752   -4.2703   -1.9063 H   0  0  0  0  0  0  0  0  0  0  0  0
    4.8419   -4.6345   -0.7206 H   0  0  0  0  0  0  0  0  0  0  0  0
    3.2468   -5.3083   -0.4931 H   0  0  0  0  0  0  0  0  0  0  0  0
   -4.0747   -0.3671    0.7098 H   0  0  0  0  0  0  0  0  0  0  0  0
   -4.0753    0.1233   -0.9784 H   0  0  0  0  0  0  0  0  0  0  0  0
    1.0992   -4.7304   -0.6066 H   0  0  0  0  0  0  0  0  0  0  0  0
    0.9055   -4.1230    1.0402 H   0  0  0  0  0  0  0  0  0  0  0  0
    4.4476   -3.7577    1.5233 H   0  0  0  0  0  0  0  0  0  0  0  0
   -0.7827   -2.4671    0.2076 H   0  0  0  0  0  0  0  0  0  0  0  0
   -0.5519   -3.0514   -1.4416 H   0  0  0  0  0  0  0  0  0  0  0  0
   -5.6996    1.9333   -0.4922 H   0  0  0  0  0  0  0  0  0  0  0  0
   -5.6682    1.5065    1.2382 H   0  0  0  0  0  0  0  0  0  0  0  0
   -2.5629   -4.0643   -0.4189 H   0  0  0  0  0  0  0  0  0  0  0  0
   -1.5880   -4.7351    0.9001 H   0  0  0  0  0  0  0  0  0  0  0  0
   -1.3585   -5.3185   -0.7604 H   0  0  0  0  0  0  0  0  0  0  0  0
   -9.1027   -0.4808   -0.9610 H   0  0  0  0  0  0  0  0  0  0  0  0
   -9.0273   -0.8906    0.7906 H   0  0  0  0  0  0  0  0  0  0  0  0
   -9.9281    0.5391    0.2385 H   0  0  0  0  0  0  0  0  0  0  0  0
  1  8  1  0  0  0  0
  1 43  1  0  0  0  0
  2 11  2  0  0  0  0
  3 16  1  0  0  0  0
  3 55  1  0  0  0  0
  4 26  1  0  0  0  0
  4 27  1  0  0  0  0
  5 26  2  0  0  0  0
  6  7  1  0  0  0  0
  6 10  1  0  0  0  0
  6 11  1  0  0  0  0
  6 28  1  0  0  0  0
  7  8  1  0  0  0  0
  7 12  1  0  0  0  0
  7 29  1  0  0  0  0
  8  9  1  0  0  0  0
  8 30  1  0  0  0  0
  9 11  1  0  0  0  0
  9 31  1  0  0  0  0
  9 32  1  0  0  0  0
 10 13  1  0  0  0  0
 10 33  1  0  0  0  0
 10 34  1  0  0  0  0
 12 15  2  3  0  0  0
 12 35  1  0  0  0  0
 13 14  1  0  0  0  0
 13 36  1  0  0  0  0
 13 37  1  0  0  0  0
 14 18  1  0  0  0  0
 14 38  1  0  0  0  0
 14 39  1  0  0  0  0
 15 17  1  0  0  0  0
 15 40  1  0  0  0  0
 16 17  1  0  0  0  0
 16 19  1  0  0  0  0
 16 20  1  0  0  0  0
 17 41  1  0  0  0  0
 17 42  1  0  0  0  0
 18 21  1  0  0  0  0
 18 44  1  0  0  0  0
 18 45  1  0  0  0  0
 19 22  1  0  0  0  0
 19 46  1  0  0  0  0
 19 47  1  0  0  0  0
 20 48  1  0  0  0  0
 20 49  1  0  0  0  0
 20 50  1  0  0  0  0
 21 24  1  0  0  0  0
 21 51  1  0  0  0  0
 21 52  1  0  0  0  0
 22 23  1  0  0  0  0
 22 53  1  0  0  0  0
 22 54  1  0  0  0  0
 23 25  1  0  0  0  0
 23 56  1  0  0  0  0
 23 57  1  0  0  0  0
 24 26  1  0  0  0  0
 24 58  1  0  0  0  0
 24 59  1  0  0  0  0
 25 60  1  0  0  0  0
 25 61  1  0  0  0  0
 25 62  1  0  0  0  0
 27 63  1  0  0  0  0
 27 64  1  0  0  0  0
 27 65  1  0  0  0  0
M  END
> <PUBCHEM_COMPOUND_CID>
4183806

> <PUBCHEM_CONFORMER_RMSD>
1.8

> <PUBCHEM_CONFORMER_DIVERSEORDER>
1
35
58
24
53
40
12
52
17
7
22
32
29
30
5
31
57
2
26
41
8
23
45
54
36
42
3
15
60
14
9
47
13
34
44
48
28
21
37
19
49
43
11
50
51
10
55
59
61
25
4
27
46
18
39
16
56
6
20
38
33

> <PUBCHEM_MMFF94_PARTIAL_CHARGES>
21
1 -0.68
11 0.45
12 -0.29
15 -0.29
16 0.28
17 0.14
2 -0.57
24 0.06
26 0.66
27 0.28
3 -0.68
35 0.15
4 -0.43
40 0.15
43 0.4
5 -0.57
55 0.4
6 0.06
7 0.14
8 0.28
9 0.06

> <PUBCHEM_EFFECTIVE_ROTOR_COUNT>
14.8

> <PUBCHEM_PHARMACOPHORE_FEATURES>
10
1 1 acceptor
1 1 donor
1 2 acceptor
1 25 hydrophobe
1 3 acceptor
1 3 donor
1 5 acceptor
3 10 13 14 hydrophobe
3 18 21 24 hydrophobe
5 6 7 8 9 11 rings

> <PUBCHEM_HEAVY_ATOM_COUNT>
27

> <PUBCHEM_ATOM_DEF_STEREO_COUNT>
0

> <PUBCHEM_ATOM_UDEF_STEREO_COUNT>
4

> <PUBCHEM_BOND_DEF_STEREO_COUNT>
0

> <PUBCHEM_BOND_UDEF_STEREO_COUNT>
1

> <PUBCHEM_ISOTOPIC_ATOM_COUNT>
0

> <PUBCHEM_COMPONENT_COUNT>
1

> <PUBCHEM_CACTVS_TAUTO_COUNT>
3

> <PUBCHEM_CONFORMER_ID>
003FD6FE00000001

> <PUBCHEM_MMFF94_ENERGY>
33.1305

> <PUBCHEM_FEATURE_SELFOVERLAP>
50.747

> <PUBCHEM_SHAPE_FINGERPRINT>
10316853 100 18409732837477181587
10411042 1 18051132493541218182
12977781 61 17823158842310467323
13383661 66 17341823214431143726
13533116 47 18342739615698395473
1361 2 18409167718649100305
13989917 61 18411704279412094731
14725015 67 18116143381579936482
15001296 14 18409443696432214435
15328684 2 17202779107658632379
15420108 30 17612590438267618020
15483637 11 18122343742698497011
15927050 60 18269835483559076679
19427546 62 18194401323719667392
20028762 73 18130224835661118767
338550 245 18338515356327312855
4073 2 18264210378192534569
46194498 28 18113054922179422125
5047190 2 18272074020914763319
5309563 4 18121782716562688086
53794403 172 18409453604362318022
6441014 3 17546727049878763867
653340 110 17693367155106942160
99344 41 18411133667362825465

> <PUBCHEM_SHAPE_MULTIPOLES>
526.3
16.99
7.05
0.91
53.88
5.11
-0.04
-2.12
0.78
-11.5
-0.96
-0.84
-0.36
-0.19

> <PUBCHEM_SHAPE_SELFOVERLAP>
1026.572

> <PUBCHEM_SHAPE_VOLUME>
318.5

> <PUBCHEM_COORDINATE_TYPE>
2
5
10

$$$$
