34633
  -OEChem-09252021273D

 55 58  0     0  0  0  0  0  0999 V2000
    0.6288    3.6132   -1.5492 S   0  0  0  0  0  0  0  0  0  0  0  0
    3.2723   -5.3881   -1.4497 O   0  0  0  0  0  0  0  0  0  0  0  0
    1.6072    0.2006    2.5808 O   0  0  0  0  0  0  0  0  0  0  0  0
   -5.6501   -1.0810    0.5995 O   0  0  0  0  0  0  0  0  0  0  0  0
   -5.5324    0.6528   -0.8874 O   0  0  0  0  0  0  0  0  0  0  0  0
    2.2880   -3.2640    0.1691 N   0  0  0  0  0  0  0  0  0  0  0  0
    1.0465    1.2350    0.5574 N   0  0  0  0  0  0  0  0  0  0  0  0
   -3.6540   -0.0772    0.3124 N   0  0  0  0  0  0  0  0  0  0  0  0
    2.4197   -1.9611    0.8179 C   0  0  0  0  0  0  0  0  0  0  0  0
    3.3074   -4.1992    0.6649 C   0  0  0  0  0  0  0  0  0  0  0  0
    2.3927   -3.1329   -1.2907 C   0  0  0  0  0  0  0  0  0  0  0  0
    1.1091   -1.2085    0.7138 C   0  0  0  0  0  0  0  0  0  0  0  0
    3.1583   -5.5470   -0.0352 C   0  0  0  0  0  0  0  0  0  0  0  0
    2.2642   -4.5058   -1.9442 C   0  0  0  0  0  0  0  0  0  0  0  0
    1.2612    0.1320    1.4011 C   0  0  0  0  0  0  0  0  0  0  0  0
   -0.2622    1.4425   -0.0192 C   0  0  0  0  0  0  0  0  0  0  0  0
    2.1115    2.1901    0.3596 C   0  0  0  0  0  0  0  0  0  0  0  0
   -0.5540    2.4486   -0.9491 C   0  0  0  0  0  0  0  0  0  0  0  0
    2.0188    3.2875   -0.5084 C   0  0  0  0  0  0  0  0  0  0  0  0
   -1.3384    0.6212    0.3938 C   0  0  0  0  0  0  0  0  0  0  0  0
    3.3427    2.0132    1.0341 C   0  0  0  0  0  0  0  0  0  0  0  0
   -1.8583    2.5851   -1.4678 C   0  0  0  0  0  0  0  0  0  0  0  0
   -2.6292    0.7642   -0.1214 C   0  0  0  0  0  0  0  0  0  0  0  0
    3.0971    4.1867   -0.6429 C   0  0  0  0  0  0  0  0  0  0  0  0
   -2.8889    1.7456   -1.0609 C   0  0  0  0  0  0  0  0  0  0  0  0
    4.4079    2.9074    0.8946 C   0  0  0  0  0  0  0  0  0  0  0  0
    4.2818    4.0032    0.0601 C   0  0  0  0  0  0  0  0  0  0  0  0
   -4.9913   -0.0885   -0.0760 C   0  0  0  0  0  0  0  0  0  0  0  0
   -7.0455   -1.2208    0.3077 C   0  0  0  0  0  0  0  0  0  0  0  0
   -7.6110   -2.3551    1.1355 C   0  0  0  0  0  0  0  0  0  0  0  0
    3.2537   -1.3783    0.4047 H   0  0  0  0  0  0  0  0  0  0  0  0
    2.6452   -2.1003    1.8839 H   0  0  0  0  0  0  0  0  0  0  0  0
    4.3123   -3.7983    0.4784 H   0  0  0  0  0  0  0  0  0  0  0  0
    3.1959   -4.3502    1.7448 H   0  0  0  0  0  0  0  0  0  0  0  0
    3.3602   -2.6922   -1.5652 H   0  0  0  0  0  0  0  0  0  0  0  0
    1.6037   -2.4933   -1.6974 H   0  0  0  0  0  0  0  0  0  0  0  0
    0.3105   -1.7666    1.2161 H   0  0  0  0  0  0  0  0  0  0  0  0
    0.8187   -1.0650   -0.3305 H   0  0  0  0  0  0  0  0  0  0  0  0
    3.9543   -6.2250    0.2886 H   0  0  0  0  0  0  0  0  0  0  0  0
    2.1995   -6.0231    0.2036 H   0  0  0  0  0  0  0  0  0  0  0  0
    2.4021   -4.4178   -3.0267 H   0  0  0  0  0  0  0  0  0  0  0  0
    1.2746   -4.9460   -1.7707 H   0  0  0  0  0  0  0  0  0  0  0  0
   -1.2043   -0.1307    1.1669 H   0  0  0  0  0  0  0  0  0  0  0  0
    3.5294    1.1660    1.6868 H   0  0  0  0  0  0  0  0  0  0  0  0
   -2.0867    3.3597   -2.1987 H   0  0  0  0  0  0  0  0  0  0  0  0
    3.0284    5.0416   -1.3140 H   0  0  0  0  0  0  0  0  0  0  0  0
   -3.8549    1.9241   -1.5115 H   0  0  0  0  0  0  0  0  0  0  0  0
    5.3335    2.7373    1.4365 H   0  0  0  0  0  0  0  0  0  0  0  0
    5.1033    4.7027   -0.0577 H   0  0  0  0  0  0  0  0  0  0  0  0
   -3.3926   -0.7758    1.0040 H   0  0  0  0  0  0  0  0  0  0  0  0
   -7.1751   -1.4398   -0.7579 H   0  0  0  0  0  0  0  0  0  0  0  0
   -7.5648   -0.2880    0.5541 H   0  0  0  0  0  0  0  0  0  0  0  0
   -8.6779   -2.4900    0.9370 H   0  0  0  0  0  0  0  0  0  0  0  0
   -7.4720   -2.1590    2.2038 H   0  0  0  0  0  0  0  0  0  0  0  0
   -7.0887   -3.2916    0.9137 H   0  0  0  0  0  0  0  0  0  0  0  0
  1 18  1  0  0  0  0
  1 19  1  0  0  0  0
  2 13  1  0  0  0  0
  2 14  1  0  0  0  0
  3 15  2  0  0  0  0
  4 28  1  0  0  0  0
  4 29  1  0  0  0  0
  5 28  2  0  0  0  0
  6  9  1  0  0  0  0
  6 10  1  0  0  0  0
  6 11  1  0  0  0  0
  7 15  1  0  0  0  0
  7 16  1  0  0  0  0
  7 17  1  0  0  0  0
  8 23  1  0  0  0  0
  8 28  1  0  0  0  0
  8 50  1  0  0  0  0
  9 12  1  0  0  0  0
  9 31  1  0  0  0  0
  9 32  1  0  0  0  0
 10 13  1  0  0  0  0
 10 33  1  0  0  0  0
 10 34  1  0  0  0  0
 11 14  1  0  0  0  0
 11 35  1  0  0  0  0
 11 36  1  0  0  0  0
 12 15  1  0  0  0  0
 12 37  1  0  0  0  0
 12 38  1  0  0  0  0
 13 39  1  0  0  0  0
 13 40  1  0  0  0  0
 14 41  1  0  0  0  0
 14 42  1  0  0  0  0
 16 18  2  0  0  0  0
 16 20  1  0  0  0  0
 17 19  1  0  0  0  0
 17 21  2  0  0  0  0
 18 22  1  0  0  0  0
 19 24  2  0  0  0  0
 20 23  2  0  0  0  0
 20 43  1  0  0  0  0
 21 26  1  0  0  0  0
 21 44  1  0  0  0  0
 22 25  2  0  0  0  0
 22 45  1  0  0  0  0
 23 25  1  0  0  0  0
 24 27  1  0  0  0  0
 24 46  1  0  0  0  0
 25 47  1  0  0  0  0
 26 27  2  0  0  0  0
 26 48  1  0  0  0  0
 27 49  1  0  0  0  0
 29 30  1  0  0  0  0
 29 51  1  0  0  0  0
 29 52  1  0  0  0  0
 30 53  1  0  0  0  0
 30 54  1  0  0  0  0
 30 55  1  0  0  0  0
M  END
> <PUBCHEM_COMPOUND_CID>
34633

> <PUBCHEM_CONFORMER_RMSD>
1

> <PUBCHEM_CONFORMER_DIVERSEORDER>
1
11
34
31
13
8
38
26
20
52
5
37
16
61
33
9
51
30
62
53
25
59
41
2
60
47
22
54
21
6
39
48
65
18
57
40
17
28
49
3
46
58
32
43
63
15
56
50
45
64
4
36
35
29
55
19
44
42
7
23
14
10
24
27
12

> <PUBCHEM_MMFF94_PARTIAL_CHARGES>
37
1 -0.2
10 0.27
11 0.27
12 0.06
13 0.28
14 0.28
15 0.57
16 0.12
17 0.12
18 0.1
19 0.1
2 -0.56
20 -0.15
21 -0.15
22 -0.15
23 0.12
24 -0.15
25 -0.15
26 -0.15
27 -0.15
28 0.78
29 0.28
3 -0.57
4 -0.43
43 0.15
44 0.15
45 0.15
46 0.15
47 0.15
48 0.15
49 0.15
5 -0.57
50 0.37
6 -0.81
7 -0.29
8 -0.55
9 0.27

> <PUBCHEM_EFFECTIVE_ROTOR_COUNT>
9.6

> <PUBCHEM_PHARMACOPHORE_FEATURES>
9
1 2 acceptor
1 3 acceptor
1 5 acceptor
1 6 cation
1 8 donor
6 1 7 16 17 18 19 rings
6 16 18 20 22 23 25 rings
6 17 19 21 24 26 27 rings
6 2 6 10 11 13 14 rings

> <PUBCHEM_HEAVY_ATOM_COUNT>
30

> <PUBCHEM_ATOM_DEF_STEREO_COUNT>
0

> <PUBCHEM_ATOM_UDEF_STEREO_COUNT>
0

> <PUBCHEM_BOND_DEF_STEREO_COUNT>
0

> <PUBCHEM_BOND_UDEF_STEREO_COUNT>
0

> <PUBCHEM_ISOTOPIC_ATOM_COUNT>
0

> <PUBCHEM_COMPONENT_COUNT>
1

> <PUBCHEM_CACTVS_TAUTO_COUNT>
2

> <PUBCHEM_CONFORMER_ID>
0000874900000001

> <PUBCHEM_MMFF94_ENERGY>
102.5704

> <PUBCHEM_FEATURE_SELFOVERLAP>
45.702

> <PUBCHEM_SHAPE_FINGERPRINT>
10319688 140 18411421713254935767
11421498 54 18201727292417711849
11488393 25 18409173177737176154
12623949 98 18410860958288070815
12788726 201 16964640040851114690
13692114 37 17833825354618723019
13757389 114 17543924854542994380
14251757 5 17184470915472796388
14863182 85 18262522622773912852
15297060 5 17983579885834690625
15324884 4 17692774170230902936
17859628 70 18411419514199609547
17909252 39 18337113375806677568
19311894 1 16610259261127811062
19319366 153 18129093592561147773
1979834 28 18337664325748230793
20028762 73 18191868035848625461
20286276 3 18337389315024633577
20609170 114 17400066484597013162
20771845 140 18267582605713517633
20775438 99 18263077876937815011
21133410 32 16230321558114148458
21197605 99 17752486735775573673
21344244 181 18195825157292166436
21365058 27 18124883605509198140
2260408 40 18130783395977823475
22956985 138 18336548222719630582
23559900 14 18192419784843928077
255183 313 17978763999789940584
32027 91 18265332807903068943
38695281 34 18193555807561295836
4017518 198 18196101152159301428
4461854 278 17616270503569506187
6669772 16 18341896355226400004
6673363 416 17981620265460523366
6700243 42 17123416194645859286

> <PUBCHEM_SHAPE_MULTIPOLES>
582.82
12.27
8.28
1.57
33.48
12
-0.05
3.87
3.2
-15.35
-3.86
-0.71
0.5
2.77

> <PUBCHEM_SHAPE_SELFOVERLAP>
1230.804

> <PUBCHEM_SHAPE_VOLUME>
326.6

> <PUBCHEM_COORDINATE_TYPE>
2
5
10

$$$$
