50294
  -OEChem-09252021273D

 44 46  0     0  0  0  0  0  0999 V2000
    2.5459    0.6688    0.0908 O   0  0  0  0  0  0  0  0  0  0  0  0
   -2.2057   -3.5654   -0.0675 O   0  0  0  0  0  0  0  0  0  0  0  0
    2.8561   -3.3896   -0.1162 O   0  0  0  0  0  0  0  0  0  0  0  0
   -5.0111    0.6324   -1.4749 O   0  0  0  0  0  0  0  0  0  0  0  0
   -5.5347    0.5825    0.7508 O   0  0  0  0  0  0  0  0  0  0  0  0
    4.6011    2.1653    0.1508 O   0  0  0  0  0  0  0  0  0  0  0  0
    6.1040    0.4443    0.0528 O   0  0  0  0  0  0  0  0  0  0  0  0
   -2.3086    0.5063    0.1413 N   0  0  0  0  0  0  0  0  0  0  0  0
   -1.0380   -0.1337    0.0873 C   0  0  0  0  0  0  0  0  0  0  0  0
    0.1832    0.5679    0.1079 C   0  0  0  0  0  0  0  0  0  0  0  0
   -0.9664   -1.5435   -0.0004 C   0  0  0  0  0  0  0  0  0  0  0  0
    0.2863    2.0562    0.2768 C   0  0  0  0  0  0  0  0  0  0  0  0
    1.4102   -0.1040    0.0631 C   0  0  0  0  0  0  0  0  0  0  0  0
    1.4470   -1.4924   -0.0084 C   0  0  0  0  0  0  0  0  0  0  0  0
    0.2610   -2.2217   -0.0427 C   0  0  0  0  0  0  0  0  0  0  0  0
   -2.3122    1.9479    0.3949 C   0  0  0  0  0  0  0  0  0  0  0  0
   -3.4565   -0.2610   -0.0343 C   0  0  0  0  0  0  0  0  0  0  0  0
    0.2545    2.7876   -1.0682 C   0  0  0  0  0  0  0  0  0  0  0  0
   -2.2149   -2.3410   -0.0586 C   0  0  0  0  0  0  0  0  0  0  0  0
   -3.4907   -1.5973   -0.1285 C   0  0  0  0  0  0  0  0  0  0  0  0
    2.7532   -2.1723   -0.0537 C   0  0  0  0  0  0  0  0  0  0  0  0
   -2.3782    2.2155    1.8863 C   0  0  0  0  0  0  0  0  0  0  0  0
    0.3272    4.2955   -0.8878 C   0  0  0  0  0  0  0  0  0  0  0  0
    3.7643    0.0247    0.0495 C   0  0  0  0  0  0  0  0  0  0  0  0
    3.9443   -1.2998   -0.0182 C   0  0  0  0  0  0  0  0  0  0  0  0
   -4.7828    0.3605   -0.1755 C   0  0  0  0  0  0  0  0  0  0  0  0
    4.9615    0.8664    0.0827 C   0  0  0  0  0  0  0  0  0  0  0  0
   -0.2711    2.5142    1.0819 H   0  0  0  0  0  0  0  0  0  0  0  0
    1.2726    2.3012    0.6994 H   0  0  0  0  0  0  0  0  0  0  0  0
    0.2895   -3.3061   -0.1072 H   0  0  0  0  0  0  0  0  0  0  0  0
   -1.7785    2.6312   -0.2336 H   0  0  0  0  0  0  0  0  0  0  0  0
   -3.3026    2.3014    0.0651 H   0  0  0  0  0  0  0  0  0  0  0  0
    1.1402    2.4868   -1.6458 H   0  0  0  0  0  0  0  0  0  0  0  0
   -0.5867    2.5147   -1.7153 H   0  0  0  0  0  0  0  0  0  0  0  0
   -4.4033   -2.1672   -0.2630 H   0  0  0  0  0  0  0  0  0  0  0  0
   -3.3315    1.8665    2.3010 H   0  0  0  0  0  0  0  0  0  0  0  0
   -1.5921    1.7090    2.4557 H   0  0  0  0  0  0  0  0  0  0  0  0
   -2.3162    3.2908    2.0842 H   0  0  0  0  0  0  0  0  0  0  0  0
   -0.5405    4.6723   -0.3376 H   0  0  0  0  0  0  0  0  0  0  0  0
    1.2313    4.5831   -0.3414 H   0  0  0  0  0  0  0  0  0  0  0  0
    0.3516    4.7920   -1.8630 H   0  0  0  0  0  0  0  0  0  0  0  0
    4.9155   -1.7796   -0.0497 H   0  0  0  0  0  0  0  0  0  0  0  0
   -5.8874    1.0499   -1.6165 H   0  0  0  0  0  0  0  0  0  0  0  0
    5.3787    2.7630    0.1749 H   0  0  0  0  0  0  0  0  0  0  0  0
  1 13  1  0  0  0  0
  1 24  1  0  0  0  0
  2 19  2  0  0  0  0
  3 21  2  0  0  0  0
  4 26  1  0  0  0  0
  4 43  1  0  0  0  0
  5 26  2  0  0  0  0
  6 27  1  0  0  0  0
  6 44  1  0  0  0  0
  7 27  2  0  0  0  0
  8  9  1  0  0  0  0
  8 16  1  0  0  0  0
  8 17  1  0  0  0  0
  9 10  2  0  0  0  0
  9 11  1  0  0  0  0
 10 12  1  0  0  0  0
 10 13  1  0  0  0  0
 11 15  2  0  0  0  0
 11 19  1  0  0  0  0
 12 18  1  0  0  0  0
 12 28  1  0  0  0  0
 12 29  1  0  0  0  0
 13 14  2  0  0  0  0
 14 15  1  0  0  0  0
 14 21  1  0  0  0  0
 15 30  1  0  0  0  0
 16 22  1  0  0  0  0
 16 31  1  0  0  0  0
 16 32  1  0  0  0  0
 17 20  2  0  0  0  0
 17 26  1  0  0  0  0
 18 23  1  0  0  0  0
 18 33  1  0  0  0  0
 18 34  1  0  0  0  0
 19 20  1  0  0  0  0
 20 35  1  0  0  0  0
 21 25  1  0  0  0  0
 22 36  1  0  0  0  0
 22 37  1  0  0  0  0
 22 38  1  0  0  0  0
 23 39  1  0  0  0  0
 23 40  1  0  0  0  0
 23 41  1  0  0  0  0
 24 25  2  0  0  0  0
 24 27  1  0  0  0  0
 25 42  1  0  0  0  0
M  END
> <PUBCHEM_COMPOUND_CID>
50294

> <PUBCHEM_CONFORMER_RMSD>
0.8

> <PUBCHEM_CONFORMER_DIVERSEORDER>
2
3
1

> <PUBCHEM_MMFF94_PARTIAL_CHARGES>
29
1 -0.16
10 -0.14
11 0.09
12 0.14
13 0.08
14 0.09
15 -0.15
16 0.37
17 0.11
19 0.47
2 -0.57
20 -0.14
21 0.47
24 0.09
25 -0.14
26 0.71
27 0.71
3 -0.57
30 0.15
35 0.15
4 -0.65
42 0.15
43 0.5
44 0.5
5 -0.57
6 -0.65
7 -0.57
8 -0.57
9 0.1

> <PUBCHEM_EFFECTIVE_ROTOR_COUNT>
5

> <PUBCHEM_PHARMACOPHORE_FEATURES>
14
1 1 acceptor
1 2 acceptor
1 23 hydrophobe
1 3 acceptor
1 4 acceptor
1 5 acceptor
1 6 acceptor
1 7 acceptor
1 8 cation
3 4 5 26 anion
3 6 7 27 anion
6 1 13 14 21 24 25 rings
6 8 9 11 17 19 20 rings
6 9 10 11 13 14 15 rings

> <PUBCHEM_HEAVY_ATOM_COUNT>
27

> <PUBCHEM_ATOM_DEF_STEREO_COUNT>
0

> <PUBCHEM_ATOM_UDEF_STEREO_COUNT>
0

> <PUBCHEM_BOND_DEF_STEREO_COUNT>
0

> <PUBCHEM_BOND_UDEF_STEREO_COUNT>
0

> <PUBCHEM_ISOTOPIC_ATOM_COUNT>
0

> <PUBCHEM_COMPONENT_COUNT>
1

> <PUBCHEM_CACTVS_TAUTO_COUNT>
1

> <PUBCHEM_CONFORMER_ID>
0000C47600000002

> <PUBCHEM_MMFF94_ENERGY>
114.4506

> <PUBCHEM_FEATURE_SELFOVERLAP>
71.224

> <PUBCHEM_SHAPE_FINGERPRINT>
10366900 7 17775278378636313171
10411042 1 17691404535083567999
10498660 4 18410295839349557398
10616163 171 18341334482698080134
10906281 52 18201453462529428427
10967382 1 18410856529612305554
1100329 8 18338239396057059065
11112241 14 16699184287201192408
11578080 2 17387679523481982254
12107183 9 17550677608078110506
12236239 1 17989205911436563105
12403259 226 17977102362620228734
12788726 201 17489031453047510201
12838862 33 18338779174509028465
13004483 165 18262227807659961376
13140716 1 18052546752955926425
14117953 113 18408884027823018100
14790565 3 18340210704198626417
15081414 286 18409736140227534237
15196674 1 18411418427267318187
1601671 61 18410290341464253828
19591789 44 18050852117447816234
20642791 178 18044665436333739460
20739085 24 18050034137153636961
21267235 1 18340215076591949914
21421861 104 18042394751928675290
2334 1 18339929190957600251
23402539 116 18341324582740096526
23559900 14 18271519913976899968
3178227 256 18335715948984981451
335352 9 18410855490214071277
34934 24 18409725170881371850
350125 39 18266740182675813178
3545911 37 18410294717851487502
5104073 3 18408884053023395666
59554788 170 18266181625898948998
59554788 191 18193838364843229294
59755656 215 18409731729987204942
9709674 26 18271531892672479718

> <PUBCHEM_SHAPE_MULTIPOLES>
509.58
9.91
4.07
0.9
3.01
0.97
0.11
0.6
0.07
0.46
-0.63
-0.75
0.64
-0.4

> <PUBCHEM_SHAPE_SELFOVERLAP>
1118.368

> <PUBCHEM_SHAPE_VOLUME>
272.9

> <PUBCHEM_COORDINATE_TYPE>
2
5
10

$$$$
