71147
  -OEChem-09252021273D

 54 56  0     1  0  0  0  0  0999 V2000
   -0.8469   -1.4995   -1.2182 O   0  0  0  0  0  0  0  0  0  0  0  0
    1.2625   -3.0431   -2.2313 O   0  0  0  0  0  0  0  0  0  0  0  0
   -0.7466    0.9471   -2.2025 O   0  0  0  0  0  0  0  0  0  0  0  0
   -1.6616    1.0666   -0.0612 N   0  0  0  0  0  0  0  0  0  0  0  0
    3.0997   -1.2614    0.4446 N   0  0  0  0  0  0  0  0  0  0  0  0
    2.3627    3.5174   -1.2523 N   0  0  0  0  0  0  0  0  0  0  0  0
   -3.3481    2.3141    1.2146 C   0  0  0  0  0  0  0  0  0  0  0  0
   -4.0213    1.0310    1.6760 C   0  0  0  0  0  0  0  0  0  0  0  0
   -1.8663    2.0632    0.9958 C   0  0  0  0  0  0  0  0  0  0  0  0
   -2.4287   -0.1460    0.0556 C   0  0  0  0  0  0  0  0  0  0  0  0
   -3.5800   -0.1694    0.8750 C   0  0  0  0  0  0  0  0  0  0  0  0
   -2.0393   -1.3391   -0.5748 C   0  0  0  0  0  0  0  0  0  0  0  0
   -4.3273   -1.3532    1.0033 C   0  0  0  0  0  0  0  0  0  0  0  0
   -0.6902    1.3476   -1.0380 C   0  0  0  0  0  0  0  0  0  0  0  0
    1.5056   -1.9726   -1.3142 C   0  0  1  0  0  0  0  0  0  0  0  0
    0.2834   -1.8185   -0.4117 C   0  0  0  0  0  0  0  0  0  0  0  0
   -2.7954   -2.5068   -0.4446 C   0  0  0  0  0  0  0  0  0  0  0  0
    2.7916   -2.2846   -0.5452 C   0  0  0  0  0  0  0  0  0  0  0  0
   -3.9435   -2.5125    0.3368 C   0  0  0  0  0  0  0  0  0  0  0  0
    4.2952   -1.6106    1.2000 C   0  0  0  0  0  0  0  0  0  0  0  0
    0.5582    2.0398   -0.6487 C   0  0  0  0  0  0  0  0  0  0  0  0
    4.6145   -0.4947    2.1898 C   0  0  0  0  0  0  0  0  0  0  0  0
    4.0964   -2.9416    1.9197 C   0  0  0  0  0  0  0  0  0  0  0  0
    1.0878    1.8814    0.6217 C   0  0  0  0  0  0  0  0  0  0  0  0
    1.2196    2.8569   -1.5435 C   0  0  0  0  0  0  0  0  0  0  0  0
    2.2625    2.5448    0.9587 C   0  0  0  0  0  0  0  0  0  0  0  0
    2.8556    3.3437   -0.0055 C   0  0  0  0  0  0  0  0  0  0  0  0
   -3.5010    3.1041    1.9580 H   0  0  0  0  0  0  0  0  0  0  0  0
   -3.8056    2.6555    0.2770 H   0  0  0  0  0  0  0  0  0  0  0  0
   -3.7727    0.8478    2.7290 H   0  0  0  0  0  0  0  0  0  0  0  0
   -5.1087    1.1533    1.6063 H   0  0  0  0  0  0  0  0  0  0  0  0
   -1.4027    3.0180    0.7260 H   0  0  0  0  0  0  0  0  0  0  0  0
   -1.4077    1.6998    1.9229 H   0  0  0  0  0  0  0  0  0  0  0  0
   -5.2121   -1.3752    1.6352 H   0  0  0  0  0  0  0  0  0  0  0  0
    1.6291   -1.0634   -1.9151 H   0  0  0  0  0  0  0  0  0  0  0  0
    0.4373   -1.0380    0.3384 H   0  0  0  0  0  0  0  0  0  0  0  0
    0.0883   -2.7662    0.1062 H   0  0  0  0  0  0  0  0  0  0  0  0
   -2.4758   -3.4270   -0.9276 H   0  0  0  0  0  0  0  0  0  0  0  0
    3.6187   -2.3932   -1.2584 H   0  0  0  0  0  0  0  0  0  0  0  0
    2.6417   -3.2704   -0.0921 H   0  0  0  0  0  0  0  0  0  0  0  0
   -4.5253   -3.4226    0.4464 H   0  0  0  0  0  0  0  0  0  0  0  0
    5.1525   -1.7012    0.5206 H   0  0  0  0  0  0  0  0  0  0  0  0
    3.2292   -0.3630   -0.0198 H   0  0  0  0  0  0  0  0  0  0  0  0
    4.7864    0.4548    1.6707 H   0  0  0  0  0  0  0  0  0  0  0  0
    5.5213   -0.7276    2.7585 H   0  0  0  0  0  0  0  0  0  0  0  0
    3.7978   -0.3467    2.9054 H   0  0  0  0  0  0  0  0  0  0  0  0
    4.8892   -3.0940    2.6616 H   0  0  0  0  0  0  0  0  0  0  0  0
    3.1414   -2.9768    2.4567 H   0  0  0  0  0  0  0  0  0  0  0  0
    4.1511   -3.7981    1.2406 H   0  0  0  0  0  0  0  0  0  0  0  0
    2.0297   -3.0992   -2.8263 H   0  0  0  0  0  0  0  0  0  0  0  0
    0.6526    1.2130    1.3567 H   0  0  0  0  0  0  0  0  0  0  0  0
    0.8500    3.0232   -2.5504 H   0  0  0  0  0  0  0  0  0  0  0  0
    2.7073    2.4290    1.9404 H   0  0  0  0  0  0  0  0  0  0  0  0
    3.7752    3.8792    0.2062 H   0  0  0  0  0  0  0  0  0  0  0  0
  1 12  1  0  0  0  0
  1 16  1  0  0  0  0
  2 15  1  0  0  0  0
  2 50  1  0  0  0  0
  3 14  2  0  0  0  0
  4  9  1  0  0  0  0
  4 10  1  0  0  0  0
  4 14  1  0  0  0  0
  5 18  1  0  0  0  0
  5 20  1  0  0  0  0
  5 43  1  0  0  0  0
  6 25  1  0  0  0  0
  6 27  2  0  0  0  0
  7  8  1  0  0  0  0
  7  9  1  0  0  0  0
  7 28  1  0  0  0  0
  7 29  1  0  0  0  0
  8 11  1  0  0  0  0
  8 30  1  0  0  0  0
  8 31  1  0  0  0  0
  9 32  1  0  0  0  0
  9 33  1  0  0  0  0
 10 11  2  0  0  0  0
 10 12  1  0  0  0  0
 11 13  1  0  0  0  0
 12 17  2  0  0  0  0
 13 19  2  0  0  0  0
 13 34  1  0  0  0  0
 14 21  1  0  0  0  0
 15 16  1  0  0  0  0
 15 18  1  0  0  0  0
 15 35  1  0  0  0  0
 16 36  1  0  0  0  0
 16 37  1  0  0  0  0
 17 19  1  0  0  0  0
 17 38  1  0  0  0  0
 18 39  1  0  0  0  0
 18 40  1  0  0  0  0
 19 41  1  0  0  0  0
 20 22  1  0  0  0  0
 20 23  1  0  0  0  0
 20 42  1  0  0  0  0
 21 24  1  0  0  0  0
 21 25  2  0  0  0  0
 22 44  1  0  0  0  0
 22 45  1  0  0  0  0
 22 46  1  0  0  0  0
 23 47  1  0  0  0  0
 23 48  1  0  0  0  0
 23 49  1  0  0  0  0
 24 26  2  0  0  0  0
 24 51  1  0  0  0  0
 25 52  1  0  0  0  0
 26 27  1  0  0  0  0
 26 53  1  0  0  0  0
 27 54  1  0  0  0  0
M  END
> <PUBCHEM_COMPOUND_CID>
71147

> <PUBCHEM_CONFORMER_RMSD>
1

> <PUBCHEM_CONFORMER_DIVERSEORDER>
2
14
183
75
16
110
65
45
91
168
112
122
49
13
140
136
64
83
179
176
40
15
103
185
52
150
78
63
100
37
99
173
86
184
97
44
144
164
68
160
169
115
12
138
92
76
117
181
74
137
10
109
33
25
131
180
158
154
105
96
175
55
167
132
94
141
186
101
182
11
161
60
166
123
107
3
17
26
146
178
156
9
139
80
67
116
157
34
42
129
20
32
41
149
29
5
171
108
82
28
153
133
72
79
120
106
47
174
142
46
70
127
162
38
73
143
119
1
128
69
24
172
170
124
77
130
59
27
18
163
51
39
66
125
104
148
54
21
111
50
152
8
22
48
151
165
71
19
93
126
4
155
6
147
90
57
62
30
53
177
113
89
35
134
135
85
81
58
159
121
84
145
95
7
87
56
43
88
36
114
31
61
98
102
118
23

> <PUBCHEM_MMFF94_PARTIAL_CHARGES>
33
1 -0.36
10 0.12
11 -0.14
12 0.08
13 -0.15
14 0.54
15 0.28
16 0.28
17 -0.15
18 0.27
19 -0.15
2 -0.68
20 0.27
21 0.09
24 -0.15
25 0.16
26 -0.15
27 0.16
3 -0.57
34 0.15
38 0.15
4 -0.48
41 0.15
43 0.36
5 -0.9
50 0.4
51 0.15
52 0.15
53 0.15
54 0.15
6 -0.62
8 0.14
9 0.3

> <PUBCHEM_EFFECTIVE_ROTOR_COUNT>
8.8

> <PUBCHEM_PHARMACOPHORE_FEATURES>
11
1 1 acceptor
1 2 acceptor
1 2 donor
1 3 acceptor
1 5 cation
1 5 donor
1 6 acceptor
3 20 22 23 hydrophobe
6 10 11 12 13 17 19 rings
6 4 7 8 9 10 11 rings
6 6 21 24 25 26 27 rings

> <PUBCHEM_HEAVY_ATOM_COUNT>
27

> <PUBCHEM_ATOM_DEF_STEREO_COUNT>
0

> <PUBCHEM_ATOM_UDEF_STEREO_COUNT>
1

> <PUBCHEM_BOND_DEF_STEREO_COUNT>
0

> <PUBCHEM_BOND_UDEF_STEREO_COUNT>
0

> <PUBCHEM_ISOTOPIC_ATOM_COUNT>
0

> <PUBCHEM_COMPONENT_COUNT>
1

> <PUBCHEM_CACTVS_TAUTO_COUNT>
1

> <PUBCHEM_CONFORMER_ID>
000115EB00000002

> <PUBCHEM_MMFF94_ENERGY>
86.5036

> <PUBCHEM_FEATURE_SELFOVERLAP>
55.857

> <PUBCHEM_SHAPE_FINGERPRINT>
10006869 2 17915208835075196161
10165383 225 15459068796218600868
10675989 125 15750888704226334743
1100329 8 17981914981044939905
11578080 2 17676483947777229765
11963148 33 17615970350017687531
12035758 1 18045784481868565777
12156800 1 14544847113011166978
12422481 6 18269823260408563618
12553582 1 18267308638386944228
12633257 1 18339364063102429723
12788726 201 16247450141156086462
13083527 12 18340483469456856431
13140716 1 18197527098407394571
133893 2 18041855019998301717
14955137 171 17333420772509287635
15274700 34 18410575094418844579
15463212 79 17399235738303391604
15475509 35 17097809904600823035
15840311 113 16697243297608398249
16110190 28 18340476782582822794
16120349 306 17907290310523511360
1813 80 18113624447495040954
19319366 153 17471570400776010064
20028762 73 16405089240903338991
20600515 1 18123760750670644052
20905425 154 17985855798111655757
21033648 29 17699574632600600251
21421861 104 18266761214761260515
23366157 5 18115323283228277285
23419403 2 18187909703831171359
23559900 14 17915483643450377479
3178227 256 17043751565287475843
43471831 8 18124891302412092621
4409770 3 17465930576182479220
460360 51 18260543424708454709
57091435 65 18266739258914875368
57527452 28 15671181687376103178
6287921 2 18201722881396218054
6823239 73 17987258667542984078
7097593 13 18411422833940745889
90316 7 18118119169488612918
9925002 15 17341223215730858110

> <PUBCHEM_SHAPE_MULTIPOLES>
523.1
8.26
4.79
1.95
0.61
1.29
-0.1
-4.15
5.88
3.22
-0.83
1.11
-0.3
-1.78

> <PUBCHEM_SHAPE_SELFOVERLAP>
1103.908

> <PUBCHEM_SHAPE_VOLUME>
292.2

> <PUBCHEM_COORDINATE_TYPE>
2
5
10

$$$$
