115355
  -OEChem-09252021273D

 33 34  0     0  0  0  0  0  0999 V2000
   -4.6377    1.9596   -0.3568 F   0  0  0  0  0  0  0  0  0  0  0  0
   -5.1007   -0.1348   -0.6784 F   0  0  0  0  0  0  0  0  0  0  0  0
   -4.6711    0.5853    1.3281 F   0  0  0  0  0  0  0  0  0  0  0  0
    1.2311    1.7292    1.5860 O   0  0  0  0  0  0  0  0  0  0  0  0
    4.0262   -1.6753    0.1240 O   0  0  0  0  0  0  0  0  0  0  0  0
    1.7087   -0.8457   -1.7852 O   0  0  0  0  0  0  0  0  0  0  0  0
   -1.2598   -3.2483    0.8333 O   0  5  0  0  0  0  0  0  0  0  0  0
    0.7553   -2.6444    0.2057 O   0  0  0  0  0  0  0  0  0  0  0  0
   -0.4636   -2.4002    0.3663 N   0  3  0  0  0  0  0  0  0  0  0  0
    2.2617   -0.0746    0.3905 C   0  0  0  0  0  0  0  0  0  0  0  0
    4.5019    1.8394    0.2096 C   0  0  0  0  0  0  0  0  0  0  0  0
    3.0808    2.3785    0.2188 C   0  0  0  0  0  0  0  0  0  0  0  0
    4.5861    0.5408   -0.5753 C   0  0  0  0  0  0  0  0  0  0  0  0
    2.1417    1.3698    0.8378 C   0  0  0  0  0  0  0  0  0  0  0  0
    3.6738   -0.4981    0.0340 C   0  0  0  0  0  0  0  0  0  0  0  0
    1.3074   -0.3865   -0.7184 C   0  0  0  0  0  0  0  0  0  0  0  0
   -0.1471   -0.1335   -0.5153 C   0  0  0  0  0  0  0  0  0  0  0  0
   -0.9605   -1.1168    0.0057 C   0  0  0  0  0  0  0  0  0  0  0  0
   -0.6271    1.1114   -0.8669 C   0  0  0  0  0  0  0  0  0  0  0  0
   -2.8284    0.4062   -0.1638 C   0  0  0  0  0  0  0  0  0  0  0  0
   -2.3170   -0.8442    0.1835 C   0  0  0  0  0  0  0  0  0  0  0  0
   -1.9834    1.3840   -0.6890 C   0  0  0  0  0  0  0  0  0  0  0  0
   -4.2783    0.6983    0.0257 C   0  0  0  0  0  0  0  0  0  0  0  0
    1.9971   -0.6764    1.2699 H   0  0  0  0  0  0  0  0  0  0  0  0
    5.1743    2.5820   -0.2341 H   0  0  0  0  0  0  0  0  0  0  0  0
    4.8366    1.6681    1.2406 H   0  0  0  0  0  0  0  0  0  0  0  0
    2.7328    2.5991   -0.7959 H   0  0  0  0  0  0  0  0  0  0  0  0
    3.0414    3.3027    0.8049 H   0  0  0  0  0  0  0  0  0  0  0  0
    5.6140    0.1635   -0.5529 H   0  0  0  0  0  0  0  0  0  0  0  0
    4.2967    0.6884   -1.6210 H   0  0  0  0  0  0  0  0  0  0  0  0
    0.0221    1.8762   -1.2827 H   0  0  0  0  0  0  0  0  0  0  0  0
   -3.0009   -1.5858    0.5904 H   0  0  0  0  0  0  0  0  0  0  0  0
   -2.3631    2.3633   -0.9669 H   0  0  0  0  0  0  0  0  0  0  0  0
  1 23  1  0  0  0  0
  2 23  1  0  0  0  0
  3 23  1  0  0  0  0
  4 14  2  0  0  0  0
  5 15  2  0  0  0  0
  6 16  2  0  0  0  0
  7  9  1  0  0  0  0
  8  9  2  0  0  0  0
  9 18  1  0  0  0  0
 10 14  1  0  0  0  0
 10 15  1  0  0  0  0
 10 16  1  0  0  0  0
 10 24  1  0  0  0  0
 11 12  1  0  0  0  0
 11 13  1  0  0  0  0
 11 25  1  0  0  0  0
 11 26  1  0  0  0  0
 12 14  1  0  0  0  0
 12 27  1  0  0  0  0
 12 28  1  0  0  0  0
 13 15  1  0  0  0  0
 13 29  1  0  0  0  0
 13 30  1  0  0  0  0
 16 17  1  0  0  0  0
 17 18  2  0  0  0  0
 17 19  1  0  0  0  0
 18 21  1  0  0  0  0
 19 22  2  0  0  0  0
 19 31  1  0  0  0  0
 20 21  2  0  0  0  0
 20 22  1  0  0  0  0
 20 23  1  0  0  0  0
 21 32  1  0  0  0  0
 22 33  1  0  0  0  0
M  CHG  2   7  -1   9   1
M  END
> <PUBCHEM_COMPOUND_CID>
115355

> <PUBCHEM_CONFORMER_RMSD>
0.8

> <PUBCHEM_CONFORMER_DIVERSEORDER>
1
11
7
5
10
2
3
9
8
6
4

> <PUBCHEM_MMFF94_PARTIAL_CHARGES>
25
1 -0.34
10 0.18
12 0.06
13 0.06
14 0.45
15 0.45
16 0.42
17 0.09
18 0.13
19 -0.15
2 -0.34
20 -0.14
21 -0.15
22 -0.15
23 1.16
3 -0.34
31 0.15
32 0.15
33 0.15
4 -0.57
5 -0.57
6 -0.57
7 -0.52
8 -0.52
9 0.91

> <PUBCHEM_EFFECTIVE_ROTOR_COUNT>
4.8

> <PUBCHEM_PHARMACOPHORE_FEATURES>
9
1 10 anion
1 4 acceptor
1 5 acceptor
1 6 acceptor
1 7 acceptor
1 7 anion
1 8 acceptor
6 10 11 12 13 14 15 rings
6 17 18 19 20 21 22 rings

> <PUBCHEM_HEAVY_ATOM_COUNT>
23

> <PUBCHEM_ATOM_DEF_STEREO_COUNT>
0

> <PUBCHEM_ATOM_UDEF_STEREO_COUNT>
0

> <PUBCHEM_BOND_DEF_STEREO_COUNT>
0

> <PUBCHEM_BOND_UDEF_STEREO_COUNT>
0

> <PUBCHEM_ISOTOPIC_ATOM_COUNT>
0

> <PUBCHEM_COMPONENT_COUNT>
1

> <PUBCHEM_CACTVS_TAUTO_COUNT>
8

> <PUBCHEM_CONFORMER_ID>
0001C29B00000001

> <PUBCHEM_MMFF94_ENERGY>
59.7467

> <PUBCHEM_FEATURE_SELFOVERLAP>
45.758

> <PUBCHEM_SHAPE_FINGERPRINT>
10863032 1 18339079401592184162
12011746 2 18410574002479325564
12236239 1 14979959159741401604
12403259 415 18187642462492214765
12500047 106 18337388356892888058
12507560 18 18341612569024443138
12633257 1 18335968849006168856
12788726 201 17917439674916422152
12969540 114 18042665313276805615
13140716 1 18335697282371765154
13544592 145 18411710863559328598
13675066 3 17748830708935824135
14178342 30 17972591358485239706
14787075 74 18272649091101849677
14790565 3 18336834108327736261
15196674 1 18410572898603879095
15295992 7 18059007405865922944
16945 1 18334842927661607494
18186145 218 18413383228823439796
19591789 44 18335979753379584830
19862831 5 13686302386976690149
20645477 56 18261107512996916772
21033648 29 18188755206703713661
21501502 16 18269827778418895726
21524375 3 18342173367083210807
23402539 116 18412255130035643301
23558518 356 17755296017854016152
23559900 14 18412546518503845486
25 1 18201717353593693588
335352 9 18410291402890966470
350125 39 18189614939086516972
474 4 18272088305389874457
495365 180 17489295439049318304
5104073 3 18409445929524604082
633830 44 18342451509239127085
69090 78 18409162229512246735
7364860 26 18122904218560559575
7808743 9 18189617327247115244
81228 2 17901090138494780755
9709674 26 18339927125179006094
9981440 41 16121575691733914384
9999458 23 18334573512694510534

> <PUBCHEM_SHAPE_MULTIPOLES>
417.18
9.14
2.62
1.05
3.59
1.38
-0.01
-4.12
0.21
-0.36
0.58
-0.03
-0.11
0.64

> <PUBCHEM_SHAPE_SELFOVERLAP>
904.91

> <PUBCHEM_SHAPE_VOLUME>
227.4

> <PUBCHEM_COORDINATE_TYPE>
2
5
10

$$$$
