54678491
  -OEChem-09252021283D

 80 83  0     1  0  0  0  0  0999 V2000
    5.5478    0.1022    1.6681 O   0  0  0  0  0  0  0  0  0  0  0  0
    8.2759    2.3393    0.5640 O   0  0  0  0  0  0  0  0  0  0  0  0
    6.5705    1.5032   -1.4646 O   0  0  0  0  0  0  0  0  0  0  0  0
    4.3467   -1.5739    0.5571 O   0  0  0  0  0  0  0  0  0  0  0  0
    7.0631   -1.7766    0.0487 O   0  0  0  0  0  0  0  0  0  0  0  0
    7.4510    0.5330   -3.3575 O   0  0  0  0  0  0  0  0  0  0  0  0
   -0.1455   -2.3420   -0.9044 O   0  0  0  0  0  0  0  0  0  0  0  0
   -1.6612   -0.2499    2.3878 O   0  0  0  0  0  0  0  0  0  0  0  0
   -2.2619   -2.6648   -1.6892 O   0  0  0  0  0  0  0  0  0  0  0  0
   -3.7450   -0.2535   -1.6050 O   0  0  0  0  0  0  0  0  0  0  0  0
   -9.7371   -0.7745    0.3606 O   0  0  0  0  0  0  0  0  0  0  0  0
    6.0986    2.3884   -3.4807 N   0  0  0  0  0  0  0  0  0  0  0  0
   -3.4077   -1.3542    0.4155 N   0  0  0  0  0  0  0  0  0  0  0  0
    6.3305    1.3080    1.6335 C   0  0  0  0  0  0  0  0  0  0  0  0
    7.5619    1.1169    0.7153 C   0  0  1  0  0  0  0  0  0  0  0  0
    7.2188    0.5236   -0.6587 C   0  0  1  0  0  0  0  0  0  0  0  0
    6.3106   -0.6961   -0.5048 C   0  0  2  0  0  0  0  0  0  0  0  0
    5.1134   -0.3814    0.3975 C   0  0  2  0  0  0  0  0  0  0  0  0
    5.4501    2.5137    1.2649 C   0  0  0  0  0  0  0  0  0  0  0  0
    6.8129    1.5242    3.0799 C   0  0  0  0  0  0  0  0  0  0  0  0
    9.6439    2.0991    0.2842 C   0  0  0  0  0  0  0  0  0  0  0  0
    2.9985   -1.4174    0.7347 C   0  0  0  0  0  0  0  0  0  0  0  0
    6.7697    1.3947   -2.8122 C   0  0  0  0  0  0  0  0  0  0  0  0
    2.0897   -1.9663   -0.1625 C   0  0  0  0  0  0  0  0  0  0  0  0
    2.5347   -0.6888    1.8279 C   0  0  0  0  0  0  0  0  0  0  0  0
    0.7226   -1.7800    0.0536 C   0  0  0  0  0  0  0  0  0  0  0  0
    0.2258   -1.0672    1.1459 C   0  0  0  0  0  0  0  0  0  0  0  0
    1.1603   -0.5123    2.0311 C   0  0  0  0  0  0  0  0  0  0  0  0
    2.5764   -2.7393   -1.3449 C   0  0  0  0  0  0  0  0  0  0  0  0
   -1.2310   -0.9388    1.2745 C   0  0  0  0  0  0  0  0  0  0  0  0
   -2.0451   -1.4595    0.3447 C   0  0  0  0  0  0  0  0  0  0  0  0
   -1.5241   -2.1964   -0.8285 C   0  0  0  0  0  0  0  0  0  0  0  0
   -4.1761   -0.7545   -0.5694 C   0  0  0  0  0  0  0  0  0  0  0  0
   -5.6424   -0.7554   -0.3271 C   0  0  0  0  0  0  0  0  0  0  0  0
   -7.8187    0.2402   -0.6574 C   0  0  0  0  0  0  0  0  0  0  0  0
   -6.4426    0.2416   -0.8850 C   0  0  0  0  0  0  0  0  0  0  0  0
   -6.2184   -1.7537    0.4587 C   0  0  0  0  0  0  0  0  0  0  0  0
   -8.6602    1.3150   -1.2627 C   0  0  0  0  0  0  0  0  0  0  0  0
   -8.3946   -0.7581    0.1282 C   0  0  0  0  0  0  0  0  0  0  0  0
   -7.5945   -1.7551    0.6863 C   0  0  0  0  0  0  0  0  0  0  0  0
   -8.5232    2.6381   -0.5510 C   0  0  0  0  0  0  0  0  0  0  0  0
   -9.4790    3.3412    0.0860 C   0  0  0  0  0  0  0  0  0  0  0  0
  -10.8937    2.8283    0.1396 C   0  0  0  0  0  0  0  0  0  0  0  0
   -9.2718    4.6590    0.7770 C   0  0  0  0  0  0  0  0  0  0  0  0
    8.2048    0.3794    1.2200 H   0  0  0  0  0  0  0  0  0  0  0  0
    8.1609    0.2180   -1.1300 H   0  0  0  0  0  0  0  0  0  0  0  0
    5.9353   -1.0376   -1.4766 H   0  0  0  0  0  0  0  0  0  0  0  0
    4.4901    0.3777   -0.0922 H   0  0  0  0  0  0  0  0  0  0  0  0
    7.3985    0.6658    3.4291 H   0  0  0  0  0  0  0  0  0  0  0  0
    7.4272    2.4254    3.1767 H   0  0  0  0  0  0  0  0  0  0  0  0
    5.9616    1.6102    3.7656 H   0  0  0  0  0  0  0  0  0  0  0  0
    5.9966    3.4579    1.3597 H   0  0  0  0  0  0  0  0  0  0  0  0
    5.0589    2.4575    0.2466 H   0  0  0  0  0  0  0  0  0  0  0  0
    4.5722    2.5597    1.9204 H   0  0  0  0  0  0  0  0  0  0  0  0
    7.7890   -1.9740   -0.5674 H   0  0  0  0  0  0  0  0  0  0  0  0
   10.1533    3.0664    0.2436 H   0  0  0  0  0  0  0  0  0  0  0  0
    9.7787    1.6130   -0.6854 H   0  0  0  0  0  0  0  0  0  0  0  0
   10.1116    1.5068    1.0771 H   0  0  0  0  0  0  0  0  0  0  0  0
    3.2205   -0.2600    2.5524 H   0  0  0  0  0  0  0  0  0  0  0  0
    0.8354    0.0586    2.8978 H   0  0  0  0  0  0  0  0  0  0  0  0
    5.5464    3.0792   -2.9837 H   0  0  0  0  0  0  0  0  0  0  0  0
    6.1338    2.4622   -4.4918 H   0  0  0  0  0  0  0  0  0  0  0  0
    2.0060   -3.6669   -1.4643 H   0  0  0  0  0  0  0  0  0  0  0  0
    3.6263   -3.0352   -1.2541 H   0  0  0  0  0  0  0  0  0  0  0  0
    2.4723   -2.1376   -2.2536 H   0  0  0  0  0  0  0  0  0  0  0  0
   -3.8147   -1.4041    1.3463 H   0  0  0  0  0  0  0  0  0  0  0  0
   -2.6300   -0.1832    2.3491 H   0  0  0  0  0  0  0  0  0  0  0  0
   -5.9972    1.0233   -1.4962 H   0  0  0  0  0  0  0  0  0  0  0  0
   -5.6296   -2.5581    0.8909 H   0  0  0  0  0  0  0  0  0  0  0  0
   -8.3406    1.4636   -2.3036 H   0  0  0  0  0  0  0  0  0  0  0  0
   -9.6967    0.9819   -1.3522 H   0  0  0  0  0  0  0  0  0  0  0  0
   -8.0309   -2.5415    1.2964 H   0  0  0  0  0  0  0  0  0  0  0  0
   -7.5227    3.0700   -0.5721 H   0  0  0  0  0  0  0  0  0  0  0  0
   -9.9523   -1.5365    0.9254 H   0  0  0  0  0  0  0  0  0  0  0  0
   -9.8782    5.4391    0.3057 H   0  0  0  0  0  0  0  0  0  0  0  0
   -9.5529    4.5841    1.8323 H   0  0  0  0  0  0  0  0  0  0  0  0
   -8.2248    4.9765    0.7319 H   0  0  0  0  0  0  0  0  0  0  0  0
  -11.0430    2.2269    1.0421 H   0  0  0  0  0  0  0  0  0  0  0  0
  -11.5999    3.6660    0.1755 H   0  0  0  0  0  0  0  0  0  0  0  0
  -11.1827    2.2409   -0.7345 H   0  0  0  0  0  0  0  0  0  0  0  0
  1 14  1  0  0  0  0
  1 18  1  0  0  0  0
  2 15  1  0  0  0  0
  2 21  1  0  0  0  0
  3 16  1  0  0  0  0
  3 23  1  0  0  0  0
  4 18  1  0  0  0  0
  4 22  1  0  0  0  0
  5 17  1  0  0  0  0
  5 55  1  0  0  0  0
  6 23  2  0  0  0  0
  7 26  1  0  0  0  0
  7 32  1  0  0  0  0
  8 30  1  0  0  0  0
  8 67  1  0  0  0  0
  9 32  2  0  0  0  0
 10 33  2  0  0  0  0
 11 39  1  0  0  0  0
 11 74  1  0  0  0  0
 12 23  1  0  0  0  0
 12 61  1  0  0  0  0
 12 62  1  0  0  0  0
 13 31  1  0  0  0  0
 13 33  1  0  0  0  0
 13 66  1  0  0  0  0
 14 15  1  0  0  0  0
 14 19  1  0  0  0  0
 14 20  1  0  0  0  0
 15 16  1  0  0  0  0
 15 45  1  0  0  0  0
 16 17  1  0  0  0  0
 16 46  1  0  0  0  0
 17 18  1  0  0  0  0
 17 47  1  0  0  0  0
 18 48  1  0  0  0  0
 19 52  1  0  0  0  0
 19 53  1  0  0  0  0
 19 54  1  0  0  0  0
 20 49  1  0  0  0  0
 20 50  1  0  0  0  0
 20 51  1  0  0  0  0
 21 56  1  0  0  0  0
 21 57  1  0  0  0  0
 21 58  1  0  0  0  0
 22 24  2  0  0  0  0
 22 25  1  0  0  0  0
 24 26  1  0  0  0  0
 24 29  1  0  0  0  0
 25 28  2  0  0  0  0
 25 59  1  0  0  0  0
 26 27  2  0  0  0  0
 27 28  1  0  0  0  0
 27 30  1  0  0  0  0
 28 60  1  0  0  0  0
 29 63  1  0  0  0  0
 29 64  1  0  0  0  0
 29 65  1  0  0  0  0
 30 31  2  0  0  0  0
 31 32  1  0  0  0  0
 33 34  1  0  0  0  0
 34 36  2  0  0  0  0
 34 37  1  0  0  0  0
 35 36  1  0  0  0  0
 35 38  1  0  0  0  0
 35 39  2  0  0  0  0
 36 68  1  0  0  0  0
 37 40  2  0  0  0  0
 37 69  1  0  0  0  0
 38 41  1  0  0  0  0
 38 70  1  0  0  0  0
 38 71  1  0  0  0  0
 39 40  1  0  0  0  0
 40 72  1  0  0  0  0
 41 42  2  0  0  0  0
 41 73  1  0  0  0  0
 42 43  1  0  0  0  0
 42 44  1  0  0  0  0
 43 78  1  0  0  0  0
 43 79  1  0  0  0  0
 43 80  1  0  0  0  0
 44 75  1  0  0  0  0
 44 76  1  0  0  0  0
 44 77  1  0  0  0  0
M  END
> <PUBCHEM_COMPOUND_CID>
54678491

> <PUBCHEM_CONFORMER_RMSD>
1.6

> <PUBCHEM_CONFORMER_DIVERSEORDER>
3
98
80
100
92
56
41
81
38
45
101
95
75
19
93
64
7
73
12
32
23
27
28
37
39
99
31
34
52
89
17
68
76
14
69
71
63
53
49
48
78
15
65
46
21
61
77
55
103
66
6
87
50
94
20
16
42
62
47
57
54
72
4
18
96
97
22
35
59
60
51
8
90
9
40
30
84
13
11
10
86
102
29
67
82
25
83
24
43
85
5
74
58
44
26
36
79
70
33
2
91
88
1

> <PUBCHEM_MMFF94_PARTIAL_CHARGES>
54
1 -0.56
10 -0.57
11 -0.53
12 -0.8
13 -0.54
14 0.28
15 0.28
16 0.28
17 0.28
18 0.56
2 -0.56
21 0.28
22 0.08
23 0.78
24 -0.14
25 -0.15
26 0.08
27 0.03
28 -0.15
29 0.14
3 -0.43
30 0.05
31 0.12
32 0.71
33 0.54
34 0.09
35 -0.14
36 -0.15
37 -0.15
38 0.28
39 0.08
4 -0.36
40 -0.15
41 -0.29
42 -0.28
43 0.14
44 0.14
5 -0.68
55 0.4
59 0.15
6 -0.57
60 0.15
61 0.37
62 0.37
66 0.37
67 0.45
68 0.15
69 0.15
7 -0.23
72 0.15
73 0.15
74 0.45
8 -0.53
9 -0.57

> <PUBCHEM_EFFECTIVE_ROTOR_COUNT>
11.2

> <PUBCHEM_PHARMACOPHORE_FEATURES>
18
1 1 acceptor
1 10 acceptor
1 11 donor
1 12 donor
1 13 donor
1 2 acceptor
1 4 acceptor
1 5 acceptor
1 5 donor
1 6 acceptor
1 8 donor
1 9 acceptor
3 14 19 20 hydrophobe
3 42 43 44 hydrophobe
6 1 14 15 16 17 18 rings
6 22 24 25 26 27 28 rings
6 34 35 36 37 39 40 rings
6 7 26 27 30 31 32 rings

> <PUBCHEM_HEAVY_ATOM_COUNT>
44

> <PUBCHEM_ATOM_DEF_STEREO_COUNT>
0

> <PUBCHEM_ATOM_UDEF_STEREO_COUNT>
4

> <PUBCHEM_BOND_DEF_STEREO_COUNT>
0

> <PUBCHEM_BOND_UDEF_STEREO_COUNT>
0

> <PUBCHEM_ISOTOPIC_ATOM_COUNT>
0

> <PUBCHEM_COMPONENT_COUNT>
1

> <PUBCHEM_CACTVS_TAUTO_COUNT>
82

> <PUBCHEM_CONFORMER_ID>
034253DB00000003

> <PUBCHEM_MMFF94_ENERGY>
160.9489

> <PUBCHEM_FEATURE_SELFOVERLAP>
91.432

> <PUBCHEM_SHAPE_FINGERPRINT>
10533779 47 15068895300774043625
11181472 205 18260832536047522091
11408170 132 18271525303733250513
11456790 92 15068340090689085245
11578821 258 18410571799683965429
11607047 141 17824534176116058778
12098696 120 17917709136473570379
12125137 17 17603594040227320613
12133447 93 18272094885585935341
12539765 74 18259990353154148091
13383665 225 18338812100129253221
13782708 43 10231759993644081099
14040221 8 18339084774955162550
15145344 44 18187648041818912549
15183329 4 14692296183351172058
15198563 99 17274547525374489745
15247644 1 9655313540606156104
15392192 104 11602830077617398922
15530121 191 18201994461079931665
15554971 5 18261381240185227347
15840311 113 17675927599489735478
16728433 281 17844250615285165849
16994733 274 18334572426458097195
1754908 1 13623533450670917469
17686467 74 18260261981057056963
19301679 30 8069762792890946306
2026 5 8862650336280171261
21362857 166 15625948595580315838
21895431 317 10807935951547007045
22149856 69 18333731286814150668
23576562 1 17558814308257521613
24771293 8 18113335311124960207
25025965 108 10737584830237629113
3418910 222 18335428972018715533
3711267 37 18335989735126959917
439807 62 14333139576577466348
44280117 145 18338232787121067255
45270241 37 18340209583329149015
57303763 39 8070021191361524752
5937810 71 18272934883090626577
6204607 403 17895204315486949389
6289498 60 17531242825767874925
636775 72 18339638933770321041
9689198 14 18409726270682981171

> <PUBCHEM_SHAPE_MULTIPOLES>
830.97
38.67
3.75
2.36
44.35
3.06
1.1
38.81
4.92
6.07
0.22
-6.55
1.09
-0.16

> <PUBCHEM_SHAPE_SELFOVERLAP>
1783.264

> <PUBCHEM_SHAPE_VOLUME>
455.2

> <PUBCHEM_COORDINATE_TYPE>
2
5
10

$$$$
