51081
  -OEChem-09252021293D

 44 46  0     0  0  0  0  0  0999 V2000
   -1.7712   -2.6903   -0.4716 F   0  0  0  0  0  0  0  0  0  0  0  0
    3.2332   -2.2565   -0.3502 O   0  0  0  0  0  0  0  0  0  0  0  0
    5.5411   -1.3271    0.4842 O   0  0  0  0  0  0  0  0  0  0  0  0
    5.9401    0.7914   -0.2794 O   0  0  0  0  0  0  0  0  0  0  0  0
   -2.7757   -0.1478   -0.0100 N   0  0  0  0  0  0  0  0  0  0  0  0
   -5.5534    0.4456    0.2924 N   0  0  0  0  0  0  0  0  0  0  0  0
    1.8249    1.5092    0.3347 N   0  0  0  0  0  0  0  0  0  0  0  0
   -3.5760   -0.8614    0.9932 C   0  0  0  0  0  0  0  0  0  0  0  0
   -3.2971    1.1578   -0.4256 C   0  0  0  0  0  0  0  0  0  0  0  0
   -5.0476   -0.9034    0.5749 C   0  0  0  0  0  0  0  0  0  0  0  0
   -4.7783    1.0513   -0.7971 C   0  0  0  0  0  0  0  0  0  0  0  0
   -1.3973   -0.3872   -0.0431 C   0  0  0  0  0  0  0  0  0  0  0  0
    0.8868    0.4695    0.1345 C   0  0  0  0  0  0  0  0  0  0  0  0
   -0.5050    0.6704    0.1598 C   0  0  0  0  0  0  0  0  0  0  0  0
   -6.9738    0.3988   -0.0529 C   0  0  0  0  0  0  0  0  0  0  0  0
   -0.9208   -1.6725   -0.2762 C   0  0  0  0  0  0  0  0  0  0  0  0
    1.3444   -0.8470   -0.1048 C   0  0  0  0  0  0  0  0  0  0  0  0
    0.4502   -1.9070   -0.3080 C   0  0  0  0  0  0  0  0  0  0  0  0
    1.3343    2.8629    0.5813 C   0  0  0  0  0  0  0  0  0  0  0  0
    2.8043   -1.1280   -0.1446 C   0  0  0  0  0  0  0  0  0  0  0  0
    3.1771    1.2208    0.2916 C   0  0  0  0  0  0  0  0  0  0  0  0
    3.7202    0.0180    0.0737 C   0  0  0  0  0  0  0  0  0  0  0  0
    1.1611    3.6296   -0.7188 C   0  0  0  0  0  0  0  0  0  0  0  0
    5.1787   -0.0970    0.0622 C   0  0  0  0  0  0  0  0  0  0  0  0
   -3.2341   -1.8911    1.1423 H   0  0  0  0  0  0  0  0  0  0  0  0
   -3.4757   -0.3501    1.9596 H   0  0  0  0  0  0  0  0  0  0  0  0
   -3.1774    1.8855    0.3875 H   0  0  0  0  0  0  0  0  0  0  0  0
   -2.7541    1.5327   -1.3022 H   0  0  0  0  0  0  0  0  0  0  0  0
   -5.1610   -1.5530   -0.3035 H   0  0  0  0  0  0  0  0  0  0  0  0
   -5.6231   -1.3554    1.3920 H   0  0  0  0  0  0  0  0  0  0  0  0
   -5.1522    2.0607   -1.0080 H   0  0  0  0  0  0  0  0  0  0  0  0
   -4.8836    0.4649   -1.7201 H   0  0  0  0  0  0  0  0  0  0  0  0
   -0.9092    1.6600    0.3397 H   0  0  0  0  0  0  0  0  0  0  0  0
   -7.3599    1.4090   -0.2285 H   0  0  0  0  0  0  0  0  0  0  0  0
   -7.5567   -0.0200    0.7749 H   0  0  0  0  0  0  0  0  0  0  0  0
   -7.1643   -0.2038   -0.9484 H   0  0  0  0  0  0  0  0  0  0  0  0
    0.8037   -2.9178   -0.4918 H   0  0  0  0  0  0  0  0  0  0  0  0
    0.4292    2.8956    1.1962 H   0  0  0  0  0  0  0  0  0  0  0  0
    2.0740    3.4053    1.1867 H   0  0  0  0  0  0  0  0  0  0  0  0
    3.7960    2.0973    0.4582 H   0  0  0  0  0  0  0  0  0  0  0  0
    2.1012    3.6775   -1.2786 H   0  0  0  0  0  0  0  0  0  0  0  0
    0.4123    3.1596   -1.3642 H   0  0  0  0  0  0  0  0  0  0  0  0
    0.8365    4.6546   -0.5140 H   0  0  0  0  0  0  0  0  0  0  0  0
    6.5152   -1.4428    0.4899 H   0  0  0  0  0  0  0  0  0  0  0  0
  1 16  1  0  0  0  0
  2 20  2  0  0  0  0
  3 24  1  0  0  0  0
  3 44  1  0  0  0  0
  4 24  2  0  0  0  0
  5  8  1  0  0  0  0
  5  9  1  0  0  0  0
  5 12  1  0  0  0  0
  6 10  1  0  0  0  0
  6 11  1  0  0  0  0
  6 15  1  0  0  0  0
  7 13  1  0  0  0  0
  7 19  1  0  0  0  0
  7 21  1  0  0  0  0
  8 10  1  0  0  0  0
  8 25  1  0  0  0  0
  8 26  1  0  0  0  0
  9 11  1  0  0  0  0
  9 27  1  0  0  0  0
  9 28  1  0  0  0  0
 10 29  1  0  0  0  0
 10 30  1  0  0  0  0
 11 31  1  0  0  0  0
 11 32  1  0  0  0  0
 12 14  1  0  0  0  0
 12 16  2  0  0  0  0
 13 14  2  0  0  0  0
 13 17  1  0  0  0  0
 14 33  1  0  0  0  0
 15 34  1  0  0  0  0
 15 35  1  0  0  0  0
 15 36  1  0  0  0  0
 16 18  1  0  0  0  0
 17 18  2  0  0  0  0
 17 20  1  0  0  0  0
 18 37  1  0  0  0  0
 19 23  1  0  0  0  0
 19 38  1  0  0  0  0
 19 39  1  0  0  0  0
 20 22  1  0  0  0  0
 21 22  2  0  0  0  0
 21 40  1  0  0  0  0
 22 24  1  0  0  0  0
 23 41  1  0  0  0  0
 23 42  1  0  0  0  0
 23 43  1  0  0  0  0
M  END
> <PUBCHEM_COMPOUND_CID>
51081

> <PUBCHEM_CONFORMER_RMSD>
0.8

> <PUBCHEM_CONFORMER_DIVERSEORDER>
1
4
2
6
3
5

> <PUBCHEM_MMFF94_PARTIAL_CHARGES>
27
1 -0.19
10 0.27
11 0.27
12 0.1
13 0.1
14 -0.15
15 0.27
16 0.19
17 0.09
18 -0.15
19 0.37
2 -0.57
20 0.47
21 -0.05
22 0.03
24 0.71
3 -0.65
33 0.15
37 0.15
4 -0.57
40 0.15
44 0.5
5 -0.84
6 -0.81
7 -0.57
8 0.37
9 0.37

> <PUBCHEM_EFFECTIVE_ROTOR_COUNT>
4.2

> <PUBCHEM_PHARMACOPHORE_FEATURES>
11
1 2 acceptor
1 22 anion
1 3 acceptor
1 4 acceptor
1 5 cation
1 6 cation
1 7 cation
3 3 4 24 anion
6 12 13 14 16 17 18 rings
6 5 6 8 9 10 11 rings
6 7 13 17 20 21 22 rings

> <PUBCHEM_HEAVY_ATOM_COUNT>
24

> <PUBCHEM_ATOM_DEF_STEREO_COUNT>
0

> <PUBCHEM_ATOM_UDEF_STEREO_COUNT>
0

> <PUBCHEM_BOND_DEF_STEREO_COUNT>
0

> <PUBCHEM_BOND_UDEF_STEREO_COUNT>
0

> <PUBCHEM_ISOTOPIC_ATOM_COUNT>
0

> <PUBCHEM_COMPONENT_COUNT>
1

> <PUBCHEM_CACTVS_TAUTO_COUNT>
1

> <PUBCHEM_CONFORMER_ID>
0000C78900000001

> <PUBCHEM_MMFF94_ENERGY>
78.5162

> <PUBCHEM_FEATURE_SELFOVERLAP>
56.245

> <PUBCHEM_SHAPE_FINGERPRINT>
10 15 18335132138064478808
10411042 1 17980764835853266598
10688039 33 18114181887227624028
10906281 52 18271545129534345240
10967382 1 18412825772502344606
1100329 8 18340769350600040082
11045977 3 18113903792780045755
11421498 54 14056988395702036661
11545043 162 17458354082532365409
11578080 2 16915077758853855562
11646440 116 18202847651367849329
12011746 2 18413393124681180420
12035758 1 18410561899382856792
12166972 35 18202281437672014025
12236239 1 17203327793339645835
12403259 415 18336816550923143981
12507557 5 18412267246486492825
12596602 18 14418429810098592389
12838862 33 18341314657382054600
13140716 1 18197498634772829042
13402501 40 18335136467122565469
13533116 47 17203049578159327606
13583140 156 18113905983081725563
13862211 1 18341608200953005846
14170010 4 18413105074046554377
14341114 176 18335707165165242785
14790565 3 18339930320439644656
15081414 286 18342464707620853820
15099037 51 18412544318583641661
15196674 1 18340767155956316594
1601671 61 18412263943572265372
16087824 20 18338518526098268173
17349148 13 17775570848808292683
18681886 176 18201148949306080819
18785283 64 18190184674798557300
200 152 17989485200348760195
20642791 178 18045225092537718740
21033648 29 18339908364688056169
21267235 1 18340210687873695766
21279426 13 18193838133083702957
21285901 2 18199475372465533860
21421861 104 17970338231769675898
21641784 216 18116451275312428972
21709351 56 18411130377375529711
21792934 111 18340474592044110656
21792961 116 18187644653289369854
221357 26 18410852132093399741
23227448 37 18341612672172392367
23402539 116 18201712959842117551
23558518 356 17903349647600747530
23559900 14 18336261327784355649
23569943 247 16914558557401142022
3004659 81 18187085019293443386
3178227 256 18336276690887414627
335352 9 18413107281875606846
34934 24 18412258446167464550
350125 39 18410295839233636141
3545911 37 18412545414180116731
4073 2 17968103048577810323
4325135 7 18131347540924143807
4340502 62 17022904532175677754
5104073 3 18269270325791726290
59755656 215 18411703157918552983
7495541 125 18187652435210830473
9999458 23 18187364367301032493

> <PUBCHEM_SHAPE_MULTIPOLES>
454.08
13.12
2.77
0.77
8.47
1.55
-0.02
-0.15
-0.59
-1.62
0.39
0.29
0.08
0.43

> <PUBCHEM_SHAPE_SELFOVERLAP>
974.912

> <PUBCHEM_SHAPE_VOLUME>
251.9

> <PUBCHEM_COORDINATE_TYPE>
2
5
10

$$$$
