4786
  -OEChem-09252021293D

 24 24  0     1  0  0  0  0  0999 V2000
   -1.4691    1.6349    1.0639 O   0  0  0  0  0  0  0  0  0  0  0  0
   -2.1731    0.3817   -1.3940 N   0  0  0  0  0  0  0  0  0  0  0  0
   -1.2232    0.2388    0.8736 C   0  0  1  0  0  0  0  0  0  0  0  0
   -2.2490   -0.3480   -0.1221 C   0  0  2  0  0  0  0  0  0  0  0  0
    0.2135    0.1069    0.4151 C   0  0  0  0  0  0  0  0  0  0  0  0
   -2.0049   -1.8300   -0.4128 C   0  0  0  0  0  0  0  0  0  0  0  0
    0.9321   -1.0236    0.7626 C   0  0  0  0  0  0  0  0  0  0  0  0
    0.7767    1.1199   -0.3411 C   0  0  0  0  0  0  0  0  0  0  0  0
    2.2561   -1.1450    0.3406 C   0  0  0  0  0  0  0  0  0  0  0  0
    2.1006    0.9984   -0.7633 C   0  0  0  0  0  0  0  0  0  0  0  0
    2.8402   -0.1340   -0.4224 C   0  0  0  0  0  0  0  0  0  0  0  0
   -1.3389   -0.2375    1.8550 H   0  0  0  0  0  0  0  0  0  0  0  0
   -3.2576   -0.2140    0.2862 H   0  0  0  0  0  0  0  0  0  0  0  0
   -1.9642   -2.4059    0.5178 H   0  0  0  0  0  0  0  0  0  0  0  0
   -2.8250   -2.2393   -1.0144 H   0  0  0  0  0  0  0  0  0  0  0  0
   -1.0798   -2.0069   -0.9713 H   0  0  0  0  0  0  0  0  0  0  0  0
    0.4890   -1.8144    1.3606 H   0  0  0  0  0  0  0  0  0  0  0  0
    0.2248    2.0089   -0.6308 H   0  0  0  0  0  0  0  0  0  0  0  0
   -2.3756    1.3676   -1.2326 H   0  0  0  0  0  0  0  0  0  0  0  0
   -2.8938    0.0396   -2.0283 H   0  0  0  0  0  0  0  0  0  0  0  0
   -2.3882    1.7297    1.3668 H   0  0  0  0  0  0  0  0  0  0  0  0
    2.8325   -2.0262    0.6068 H   0  0  0  0  0  0  0  0  0  0  0  0
    2.5552    1.7844   -1.3593 H   0  0  0  0  0  0  0  0  0  0  0  0
    3.8709   -0.2286   -0.7513 H   0  0  0  0  0  0  0  0  0  0  0  0
  1  3  1  0  0  0  0
  1 21  1  0  0  0  0
  2  4  1  0  0  0  0
  2 19  1  0  0  0  0
  2 20  1  0  0  0  0
  3  4  1  0  0  0  0
  3  5  1  0  0  0  0
  3 12  1  0  0  0  0
  4  6  1  0  0  0  0
  4 13  1  0  0  0  0
  5  7  2  0  0  0  0
  5  8  1  0  0  0  0
  6 14  1  0  0  0  0
  6 15  1  0  0  0  0
  6 16  1  0  0  0  0
  7  9  1  0  0  0  0
  7 17  1  0  0  0  0
  8 10  2  0  0  0  0
  8 18  1  0  0  0  0
  9 11  2  0  0  0  0
  9 22  1  0  0  0  0
 10 11  1  0  0  0  0
 10 23  1  0  0  0  0
 11 24  1  0  0  0  0
M  END
> <PUBCHEM_COMPOUND_CID>
4786

> <PUBCHEM_CONFORMER_RMSD>
0.4

> <PUBCHEM_CONFORMER_DIVERSEORDER>
10
7
13
2
11
6
14
12
3
9
8
4
5
1

> <PUBCHEM_MMFF94_PARTIAL_CHARGES>
18
1 -0.68
10 -0.15
11 -0.15
17 0.15
18 0.15
19 0.36
2 -0.99
20 0.36
21 0.4
22 0.15
23 0.15
24 0.15
3 0.42
4 0.27
5 -0.14
7 -0.15
8 -0.15
9 -0.15

> <PUBCHEM_EFFECTIVE_ROTOR_COUNT>
2

> <PUBCHEM_PHARMACOPHORE_FEATURES>
5
1 1 acceptor
1 1 donor
1 2 cation
1 2 donor
6 5 7 8 9 10 11 rings

> <PUBCHEM_HEAVY_ATOM_COUNT>
11

> <PUBCHEM_ATOM_DEF_STEREO_COUNT>
0

> <PUBCHEM_ATOM_UDEF_STEREO_COUNT>
2

> <PUBCHEM_BOND_DEF_STEREO_COUNT>
0

> <PUBCHEM_BOND_UDEF_STEREO_COUNT>
0

> <PUBCHEM_ISOTOPIC_ATOM_COUNT>
0

> <PUBCHEM_COMPONENT_COUNT>
1

> <PUBCHEM_CACTVS_TAUTO_COUNT>
1

> <PUBCHEM_CONFORMER_ID>
000012B20000000A

> <PUBCHEM_MMFF94_ENERGY>
23.6035

> <PUBCHEM_FEATURE_SELFOVERLAP>
25.374

> <PUBCHEM_SHAPE_FINGERPRINT>
12423570 1 13868698631536198115
12716758 59 17416418562424072688
12897270 3 17896311596541069335
12932764 1 18113340808007806830
14128692 85 18340203102180521414
15310529 11 17676483943371660427
15775835 57 18113905978274762718
16945 1 18342740706403284466
17844478 74 17095820870574946201
18185500 45 18409448063849055906
20653085 51 17603863360751986037
23552423 10 18335422412664125034
2748010 2 16677271175083232450
369184 2 13614524026095362583
5084963 1 18041847323511709620
63268167 104 18187083940586440296
8030462 33 18343865502445464128

> <PUBCHEM_SHAPE_MULTIPOLES>
215.52
3.92
1.57
1.07
0.45
0.18
0.03
0.55
0.92
-0.22
-0.05
-0.39
-0.19
-0.55

> <PUBCHEM_SHAPE_SELFOVERLAP>
439.404

> <PUBCHEM_SHAPE_VOLUME>
125.5

> <PUBCHEM_COORDINATE_TYPE>
2
5
10

$$$$
