51222
  -OEChem-09252021293D

 35 37  0     0  0  0  0  0  0999 V2000
    6.2721   -2.3896   -0.2424 Cl  0  0  0  0  0  0  0  0  0  0  0  0
   -6.7358   -1.1612   -0.3039 F   0  0  0  0  0  0  0  0  0  0  0  0
    2.1947    4.3005    0.0326 O   0  0  0  0  0  0  0  0  0  0  0  0
    1.2341    2.8504   -1.4287 O   0  0  0  0  0  0  0  0  0  0  0  0
   -1.3780    0.0297    0.2034 N   0  0  0  0  0  0  0  0  0  0  0  0
   -0.9849    1.2629    0.5649 N   0  0  0  0  0  0  0  0  0  0  0  0
    0.7961   -0.1190    0.2294 C   0  0  0  0  0  0  0  0  0  0  0  0
    0.3470    1.1648    0.5788 C   0  0  0  0  0  0  0  0  0  0  0  0
   -0.3467   -0.8371   -0.0097 C   0  0  0  0  0  0  0  0  0  0  0  0
    2.1189   -0.6666    0.1157 C   0  0  0  0  0  0  0  0  0  0  0  0
    1.1556    2.3439    0.9375 C   0  0  0  0  0  0  0  0  0  0  0  0
   -2.7323   -0.2711    0.0758 C   0  0  0  0  0  0  0  0  0  0  0  0
    2.7976   -0.6034   -1.1011 C   0  0  0  0  0  0  0  0  0  0  0  0
    2.7245   -1.2627    1.2219 C   0  0  0  0  0  0  0  0  0  0  0  0
   -3.1187   -1.5521   -0.2990 C   0  0  0  0  0  0  0  0  0  0  0  0
   -3.6815    0.7133    0.3239 C   0  0  0  0  0  0  0  0  0  0  0  0
    4.0818   -1.1365   -1.2120 C   0  0  0  0  0  0  0  0  0  0  0  0
    4.0088   -1.7957    1.1113 C   0  0  0  0  0  0  0  0  0  0  0  0
    1.5047    3.1748   -0.2793 C   0  0  0  0  0  0  0  0  0  0  0  0
   -4.4746   -1.8534   -0.4279 C   0  0  0  0  0  0  0  0  0  0  0  0
   -5.0373    0.4121    0.1952 C   0  0  0  0  0  0  0  0  0  0  0  0
    4.6876   -1.7324   -0.1057 C   0  0  0  0  0  0  0  0  0  0  0  0
   -5.4340   -0.8714   -0.1806 C   0  0  0  0  0  0  0  0  0  0  0  0
   -0.4614   -1.8703   -0.3059 H   0  0  0  0  0  0  0  0  0  0  0  0
    2.0904    2.0373    1.4196 H   0  0  0  0  0  0  0  0  0  0  0  0
    0.6057    2.9826    1.6387 H   0  0  0  0  0  0  0  0  0  0  0  0
    2.3402   -0.1417   -1.9730 H   0  0  0  0  0  0  0  0  0  0  0  0
    2.2093   -1.3196    2.1781 H   0  0  0  0  0  0  0  0  0  0  0  0
   -2.4239   -2.3583   -0.5049 H   0  0  0  0  0  0  0  0  0  0  0  0
   -3.4155    1.7248    0.6184 H   0  0  0  0  0  0  0  0  0  0  0  0
    4.5988   -1.0799   -2.1664 H   0  0  0  0  0  0  0  0  0  0  0  0
    4.4683   -2.2570    1.9816 H   0  0  0  0  0  0  0  0  0  0  0  0
   -4.7847   -2.8524   -0.7204 H   0  0  0  0  0  0  0  0  0  0  0  0
   -5.7849    1.1761    0.3875 H   0  0  0  0  0  0  0  0  0  0  0  0
    2.4327    4.8171   -0.7665 H   0  0  0  0  0  0  0  0  0  0  0  0
  1 22  1  0  0  0  0
  2 23  1  0  0  0  0
  3 19  1  0  0  0  0
  3 35  1  0  0  0  0
  4 19  2  0  0  0  0
  5  6  1  0  0  0  0
  5  9  1  0  0  0  0
  5 12  1  0  0  0  0
  6  8  2  0  0  0  0
  7  8  1  0  0  0  0
  7  9  2  0  0  0  0
  7 10  1  0  0  0  0
  8 11  1  0  0  0  0
  9 24  1  0  0  0  0
 10 13  2  0  0  0  0
 10 14  1  0  0  0  0
 11 19  1  0  0  0  0
 11 25  1  0  0  0  0
 11 26  1  0  0  0  0
 12 15  2  0  0  0  0
 12 16  1  0  0  0  0
 13 17  1  0  0  0  0
 13 27  1  0  0  0  0
 14 18  2  0  0  0  0
 14 28  1  0  0  0  0
 15 20  1  0  0  0  0
 15 29  1  0  0  0  0
 16 21  2  0  0  0  0
 16 30  1  0  0  0  0
 17 22  2  0  0  0  0
 17 31  1  0  0  0  0
 18 22  1  0  0  0  0
 18 32  1  0  0  0  0
 20 23  2  0  0  0  0
 20 33  1  0  0  0  0
 21 23  1  0  0  0  0
 21 34  1  0  0  0  0
M  END
> <PUBCHEM_COMPOUND_CID>
51222

> <PUBCHEM_CONFORMER_RMSD>
0.6

> <PUBCHEM_CONFORMER_DIVERSEORDER>
1
23
14
21
9
13
12
22
5
24
15
3
17
25
8
19
6
16
20
11
2
7
4
18
10

> <PUBCHEM_MMFF94_PARTIAL_CHARGES>
33
1 -0.18
10 0.05
11 0.24
12 -0.02
13 -0.15
14 -0.15
15 -0.15
16 -0.15
17 -0.15
18 -0.15
19 0.66
2 -0.19
20 -0.15
21 -0.15
22 0.18
23 0.19
24 0.15
27 0.15
28 0.15
29 0.15
3 -0.65
30 0.15
31 0.15
32 0.15
33 0.15
34 0.15
35 0.5
4 -0.57
5 0.59
6 -0.71
7 -0.05
8 0.11
9 -0.3

> <PUBCHEM_EFFECTIVE_ROTOR_COUNT>
4

> <PUBCHEM_PHARMACOPHORE_FEATURES>
7
1 3 acceptor
1 4 acceptor
1 6 acceptor
3 3 4 19 anion
5 5 6 7 8 9 rings
6 10 13 14 17 18 22 rings
6 12 15 16 20 21 23 rings

> <PUBCHEM_HEAVY_ATOM_COUNT>
23

> <PUBCHEM_ATOM_DEF_STEREO_COUNT>
0

> <PUBCHEM_ATOM_UDEF_STEREO_COUNT>
0

> <PUBCHEM_BOND_DEF_STEREO_COUNT>
0

> <PUBCHEM_BOND_UDEF_STEREO_COUNT>
0

> <PUBCHEM_ISOTOPIC_ATOM_COUNT>
0

> <PUBCHEM_COMPONENT_COUNT>
1

> <PUBCHEM_CACTVS_TAUTO_COUNT>
1

> <PUBCHEM_CONFORMER_ID>
0000C81600000001

> <PUBCHEM_MMFF94_ENERGY>
53.9398

> <PUBCHEM_FEATURE_SELFOVERLAP>
35.58

> <PUBCHEM_SHAPE_FINGERPRINT>
10411042 1 18411418371833098384
11045515 52 18115591439880947516
11265709 11 18338801117755101408
11405975 8 18410858802456919203
11578080 2 17822835529635527772
11963148 33 17549535658227791959
12107183 9 18270408166372296313
12166972 35 18273214201133443723
12236239 1 18115030697604090962
12516196 113 18410572860366236146
12553582 1 18336816503266943259
12788726 201 17899132720313735802
13009979 54 18131079216414678785
13533116 47 18269552909565934555
13540713 5 18201170944129392625
13590594 115 18336274439887526385
13862211 1 18342457010902738023
13955234 65 18195810888814554257
14347332 77 18048316640189179562
14556957 393 17533244997886953110
15664445 248 18341906164688980942
15927050 60 17909548703401918774
167882 2 18264495168641891532
17349148 13 17775569745407976751
17492 89 18196650920436649815
17844677 252 18411704292422746409
1813 80 18341055129350285190
18222031 100 18341895164813524890
18681886 176 18412541016218631954
200 152 17604436185099094690
20028762 73 17845928628452467807
20369508 70 18334571360625855146
20388580 30 18412829100869968472
20612939 158 18337112366869138701
20645477 70 18340767164973525623
20771845 65 18131351912293503128
21033648 29 16701158795373151787
21267235 1 18412547613715569003
21304303 172 18129666270626408281
21709351 56 18411692172172639469
21781055 127 16772699679560772611
221490 88 18265058109825757555
22182313 1 18190997102312141252
2255824 54 18336263547707317651
22950370 63 18338518543087785194
23366157 5 18189333639992709008
23402539 116 18340767027482071582
23419403 2 17985799619871566840
23557571 272 18128256675861336902
23559900 14 18339073895544448091
25147074 1 18201455691633793105
3004659 81 18259987042076786494
312423 11 18270130118705316225
314173 41 18411420600605120570
335352 9 18341048520097373037
3411729 13 18198894997930422216
4409770 3 17611736817300172141
465052 167 18343025510154340063
5104073 3 18200880690508385803
5281201 14 18261668264254188845
59755656 215 18265898140941425396
67856867 119 18270112564794429017
7164475 11 17972598780389310498
7364860 26 18269557302669067000
7471813 234 18261118435488952564
7495541 125 18187651327272980315
77188 2 18411981334935828200
7970288 3 18340204094398010614
8863177 126 18043825379965876107
9709674 26 18193837265869996395
9841814 1 18261380170321158864
9971528 1 18342451556219821680
9981440 41 17617091855391439912

> <PUBCHEM_SHAPE_MULTIPOLES>
446.22
12.75
3.45
1.02
7.9
4.8
0.05
-11.8
1.3
-3.17
0.36
-0.9
0.05
-0.61

> <PUBCHEM_SHAPE_SELFOVERLAP>
973.096

> <PUBCHEM_SHAPE_VOLUME>
245.4

> <PUBCHEM_COORDINATE_TYPE>
2
5
10

$$$$
