182336
  -OEChem-09252021303D

 35 35  0     1  0  0  0  0  0999 V2000
   -0.0727    1.4546    0.4442 O   0  0  0  0  0  0  0  0  0  0  0  0
    2.3314    2.9037    0.5823 O   0  0  0  0  0  0  0  0  0  0  0  0
   -4.7505   -1.3739   -0.2623 O   0  0  0  0  0  0  0  0  0  0  0  0
    2.6213   -0.5730   -0.6566 N   0  0  0  0  0  0  0  0  0  0  0  0
    2.7017    0.5554    0.2610 C   0  0  0  0  0  0  0  0  0  0  0  0
    2.1558    1.8429   -0.3611 C   0  0  1  0  0  0  0  0  0  0  0  0
    3.1982   -1.7708   -0.0613 C   0  0  0  0  0  0  0  0  0  0  0  0
    0.6764    1.7555   -0.7292 C   0  0  0  0  0  0  0  0  0  0  0  0
    3.0968   -2.9437   -1.0278 C   0  0  0  0  0  0  0  0  0  0  0  0
    2.5197   -2.0884    1.2655 C   0  0  0  0  0  0  0  0  0  0  0  0
   -1.2349    0.7521    0.2689 C   0  0  0  0  0  0  0  0  0  0  0  0
   -1.9548    0.8941   -0.9128 C   0  0  0  0  0  0  0  0  0  0  0  0
   -1.6852   -0.0976    1.2737 C   0  0  0  0  0  0  0  0  0  0  0  0
   -3.1386    0.1782   -1.0916 C   0  0  0  0  0  0  0  0  0  0  0  0
   -2.8689   -0.8136    1.0949 C   0  0  0  0  0  0  0  0  0  0  0  0
   -3.5956   -0.6755   -0.0878 C   0  0  0  0  0  0  0  0  0  0  0  0
    2.1423    0.3803    1.1860 H   0  0  0  0  0  0  0  0  0  0  0  0
    3.7432    0.7317    0.5610 H   0  0  0  0  0  0  0  0  0  0  0  0
    2.7379    2.1064   -1.2515 H   0  0  0  0  0  0  0  0  0  0  0  0
    4.2663   -1.6028    0.1294 H   0  0  0  0  0  0  0  0  0  0  0  0
    3.1063   -0.3491   -1.5250 H   0  0  0  0  0  0  0  0  0  0  0  0
    0.5542    0.9954   -1.5106 H   0  0  0  0  0  0  0  0  0  0  0  0
    0.3377    2.7269   -1.1086 H   0  0  0  0  0  0  0  0  0  0  0  0
    3.6079   -2.7222   -1.9713 H   0  0  0  0  0  0  0  0  0  0  0  0
    2.0525   -3.1836   -1.2575 H   0  0  0  0  0  0  0  0  0  0  0  0
    3.5619   -3.8399   -0.6031 H   0  0  0  0  0  0  0  0  0  0  0  0
    1.4270   -2.0722    1.1798 H   0  0  0  0  0  0  0  0  0  0  0  0
    2.8007   -3.0924    1.6052 H   0  0  0  0  0  0  0  0  0  0  0  0
    2.8215   -1.4057    2.0662 H   0  0  0  0  0  0  0  0  0  0  0  0
    1.7796    2.7048    1.3581 H   0  0  0  0  0  0  0  0  0  0  0  0
   -1.6503    1.5701   -1.7059 H   0  0  0  0  0  0  0  0  0  0  0  0
   -1.1213   -0.2088    2.1955 H   0  0  0  0  0  0  0  0  0  0  0  0
   -3.6992    0.2992   -2.0147 H   0  0  0  0  0  0  0  0  0  0  0  0
   -3.2195   -1.4776    1.8803 H   0  0  0  0  0  0  0  0  0  0  0  0
   -5.1203   -1.1583   -1.1357 H   0  0  0  0  0  0  0  0  0  0  0  0
  1  8  1  0  0  0  0
  1 11  1  0  0  0  0
  2  6  1  0  0  0  0
  2 30  1  0  0  0  0
  3 16  1  0  0  0  0
  3 35  1  0  0  0  0
  4  5  1  0  0  0  0
  4  7  1  0  0  0  0
  4 21  1  0  0  0  0
  5  6  1  0  0  0  0
  5 17  1  0  0  0  0
  5 18  1  0  0  0  0
  6  8  1  0  0  0  0
  6 19  1  0  0  0  0
  7  9  1  0  0  0  0
  7 10  1  0  0  0  0
  7 20  1  0  0  0  0
  8 22  1  0  0  0  0
  8 23  1  0  0  0  0
  9 24  1  0  0  0  0
  9 25  1  0  0  0  0
  9 26  1  0  0  0  0
 10 27  1  0  0  0  0
 10 28  1  0  0  0  0
 10 29  1  0  0  0  0
 11 12  2  0  0  0  0
 11 13  1  0  0  0  0
 12 14  1  0  0  0  0
 12 31  1  0  0  0  0
 13 15  2  0  0  0  0
 13 32  1  0  0  0  0
 14 16  2  0  0  0  0
 14 33  1  0  0  0  0
 15 16  1  0  0  0  0
 15 34  1  0  0  0  0
M  END
> <PUBCHEM_COMPOUND_CID>
182336

> <PUBCHEM_CONFORMER_RMSD>
0.8

> <PUBCHEM_CONFORMER_DIVERSEORDER>
1
48
53
29
9
44
25
41
33
17
42
54
38
11
43
51
10
52
6
31
47
49
21
7
50
37
46
14
23
27
32
16
39
19
35
24
3
26
40
36
20
4
28
18
15
45
13
8
30
2
34
12
22
5

> <PUBCHEM_MMFF94_PARTIAL_CHARGES>
21
1 -0.36
11 0.08
12 -0.15
13 -0.15
14 -0.15
15 -0.15
16 0.08
2 -0.68
21 0.36
3 -0.53
30 0.4
31 0.15
32 0.15
33 0.15
34 0.15
35 0.45
4 -0.9
5 0.27
6 0.28
7 0.27
8 0.28

> <PUBCHEM_EFFECTIVE_ROTOR_COUNT>
6

> <PUBCHEM_PHARMACOPHORE_FEATURES>
8
1 1 acceptor
1 2 acceptor
1 2 donor
1 3 donor
1 4 cation
1 4 donor
3 7 9 10 hydrophobe
6 11 12 13 14 15 16 rings

> <PUBCHEM_HEAVY_ATOM_COUNT>
16

> <PUBCHEM_ATOM_DEF_STEREO_COUNT>
0

> <PUBCHEM_ATOM_UDEF_STEREO_COUNT>
1

> <PUBCHEM_BOND_DEF_STEREO_COUNT>
0

> <PUBCHEM_BOND_UDEF_STEREO_COUNT>
0

> <PUBCHEM_ISOTOPIC_ATOM_COUNT>
0

> <PUBCHEM_COMPONENT_COUNT>
1

> <PUBCHEM_CACTVS_TAUTO_COUNT>
2

> <PUBCHEM_CONFORMER_ID>
0002C84000000001

> <PUBCHEM_MMFF94_ENERGY>
33.4011

> <PUBCHEM_FEATURE_SELFOVERLAP>
40.599

> <PUBCHEM_SHAPE_FINGERPRINT>
10968037 57 18057330483003713455
11137873 295 18335425617015526979
12363563 72 18265899047300590646
12553582 1 18046915879032457914
12707595 3 18336548214129741086
12824470 246 17344325995026785703
13533116 47 18342463681619380075
14251705 54 18340769230499705134
14251717 144 18410011078163774035
14848160 33 18409724041199387126
15635459 17 18334860527978884570
18186145 218 17821999896629647781
20279233 1 17968937629453312449
20291156 8 18268997483831057678
204376 136 17908982450445236016
20645477 70 18409443721795284319
20671657 53 18262234413425281146
21285901 2 17822841100386880469
2255824 54 18268717276044000052
23557571 272 17169278233272779299
23559900 14 18040427823888422980
27216 239 10518824861568417887
3323516 105 18113334215502260355
33382 64 18125162890949834755
33824 294 18337952427801112176
5262128 65 18338525127367407170
7364860 26 18340768234367680344
81228 2 17619063928934101160
94968 8 18408610244916339174
9709674 26 18259984911577276779

> <PUBCHEM_SHAPE_MULTIPOLES>
306.68
7.52
2.9
1.2
3.48
0.17
-0.09
-4.88
0.89
-3.53
0.12
0.11
-0.32
0.62

> <PUBCHEM_SHAPE_SELFOVERLAP>
613.949

> <PUBCHEM_SHAPE_VOLUME>
182.4

> <PUBCHEM_COORDINATE_TYPE>
2
5
10

$$$$
