9881626
  -OEChem-09252021303D

 40 42  0     1  0  0  0  0  0999 V2000
    3.2987   -2.5871   -0.2481 O   0  0  0  0  0  0  0  0  0  0  0  0
   -3.9875   -0.5457    1.1890 O   0  0  0  0  0  0  0  0  0  0  0  0
   -3.4108    0.9014   -0.5286 N   0  0  0  0  0  0  0  0  0  0  0  0
    0.2426    1.2089    0.4699 C   0  0  1  0  0  0  0  0  0  0  0  0
    1.5361    0.5067    0.1701 C   0  0  0  0  0  0  0  0  0  0  0  0
    0.5678    2.6377   -0.0189 C   0  0  0  0  0  0  0  0  0  0  0  0
    2.0742    2.8379    0.1876 C   0  0  0  0  0  0  0  0  0  0  0  0
    2.5756    1.4390    0.0044 C   0  0  0  0  0  0  0  0  0  0  0  0
   -0.9937    0.6519   -0.2197 C   0  0  0  0  0  0  0  0  0  0  0  0
    1.8340   -0.8336    0.0912 C   0  0  0  0  0  0  0  0  0  0  0  0
    0.9795   -2.0345    0.1921 C   0  0  0  0  0  0  0  0  0  0  0  0
    3.1413   -1.2242   -0.1789 C   0  0  0  0  0  0  0  0  0  0  0  0
    3.8877    1.0458   -0.2578 C   0  0  0  0  0  0  0  0  0  0  0  0
   -2.2375    1.4664    0.1268 C   0  0  0  0  0  0  0  0  0  0  0  0
    2.0669   -3.1031    0.3063 C   0  0  0  0  0  0  0  0  0  0  0  0
    4.1754   -0.3157   -0.3648 C   0  0  0  0  0  0  0  0  0  0  0  0
   -4.1822   -0.0638    0.0762 C   0  0  0  0  0  0  0  0  0  0  0  0
   -5.3352   -0.4739   -0.8207 C   0  0  0  0  0  0  0  0  0  0  0  0
   -6.2331   -1.5141   -0.1759 C   0  0  0  0  0  0  0  0  0  0  0  0
    0.1034    1.2144    1.5589 H   0  0  0  0  0  0  0  0  0  0  0  0
   -0.0136    3.4023    0.5071 H   0  0  0  0  0  0  0  0  0  0  0  0
    0.3419    2.7372   -1.0903 H   0  0  0  0  0  0  0  0  0  0  0  0
    2.2943    3.1875    1.2014 H   0  0  0  0  0  0  0  0  0  0  0  0
    2.4891    3.5324   -0.5482 H   0  0  0  0  0  0  0  0  0  0  0  0
   -1.1623   -0.3855    0.0890 H   0  0  0  0  0  0  0  0  0  0  0  0
   -0.8546    0.6233   -1.3086 H   0  0  0  0  0  0  0  0  0  0  0  0
    0.3199   -2.0405    1.0633 H   0  0  0  0  0  0  0  0  0  0  0  0
    0.3975   -2.1670   -0.7255 H   0  0  0  0  0  0  0  0  0  0  0  0
    4.6748    1.7832   -0.3784 H   0  0  0  0  0  0  0  0  0  0  0  0
   -2.1533    2.4977   -0.2286 H   0  0  0  0  0  0  0  0  0  0  0  0
   -2.4030    1.4839    1.2095 H   0  0  0  0  0  0  0  0  0  0  0  0
    2.2561   -3.3632    1.3557 H   0  0  0  0  0  0  0  0  0  0  0  0
    1.7874   -4.0202   -0.2228 H   0  0  0  0  0  0  0  0  0  0  0  0
    5.1854   -0.6515   -0.5738 H   0  0  0  0  0  0  0  0  0  0  0  0
   -3.6455    1.2323   -1.4600 H   0  0  0  0  0  0  0  0  0  0  0  0
   -4.9241   -0.8729   -1.7550 H   0  0  0  0  0  0  0  0  0  0  0  0
   -5.9246    0.4180   -1.0626 H   0  0  0  0  0  0  0  0  0  0  0  0
   -5.6729   -2.4247    0.0609 H   0  0  0  0  0  0  0  0  0  0  0  0
   -7.0519   -1.7822   -0.8507 H   0  0  0  0  0  0  0  0  0  0  0  0
   -6.6670   -1.1357    0.7555 H   0  0  0  0  0  0  0  0  0  0  0  0
  1 12  1  0  0  0  0
  1 15  1  0  0  0  0
  2 17  2  0  0  0  0
  3 14  1  0  0  0  0
  3 17  1  0  0  0  0
  3 35  1  0  0  0  0
  4  5  1  0  0  0  0
  4  6  1  0  0  0  0
  4  9  1  0  0  0  0
  4 20  1  0  0  0  0
  5  8  2  0  0  0  0
  5 10  1  0  0  0  0
  6  7  1  0  0  0  0
  6 21  1  0  0  0  0
  6 22  1  0  0  0  0
  7  8  1  0  0  0  0
  7 23  1  0  0  0  0
  7 24  1  0  0  0  0
  8 13  1  0  0  0  0
  9 14  1  0  0  0  0
  9 25  1  0  0  0  0
  9 26  1  0  0  0  0
 10 11  1  0  0  0  0
 10 12  2  0  0  0  0
 11 15  1  0  0  0  0
 11 27  1  0  0  0  0
 11 28  1  0  0  0  0
 12 16  1  0  0  0  0
 13 16  2  0  0  0  0
 13 29  1  0  0  0  0
 14 30  1  0  0  0  0
 14 31  1  0  0  0  0
 15 32  1  0  0  0  0
 15 33  1  0  0  0  0
 16 34  1  0  0  0  0
 17 18  1  0  0  0  0
 18 19  1  0  0  0  0
 18 36  1  0  0  0  0
 18 37  1  0  0  0  0
 19 38  1  0  0  0  0
 19 39  1  0  0  0  0
 19 40  1  0  0  0  0
M  END
> <PUBCHEM_COMPOUND_CID>
9881626

> <PUBCHEM_CONFORMER_RMSD>
0.8

> <PUBCHEM_CONFORMER_DIVERSEORDER>
2
21
18
27
16
20
15
25
4
10
3
14
23
17
12
24
8
26
6
22
11
5
19
9
13
7
1

> <PUBCHEM_MMFF94_PARTIAL_CHARGES>
19
1 -0.36
10 -0.14
11 0.14
12 0.08
13 -0.15
14 0.3
15 0.28
16 -0.15
17 0.57
18 0.06
2 -0.57
29 0.15
3 -0.73
34 0.15
35 0.37
4 0.14
5 -0.14
7 0.14
8 -0.14

> <PUBCHEM_EFFECTIVE_ROTOR_COUNT>
6.2

> <PUBCHEM_PHARMACOPHORE_FEATURES>
7
1 1 acceptor
1 19 hydrophobe
1 2 acceptor
1 3 donor
5 1 10 11 12 15 rings
5 4 5 6 7 8 rings
6 5 8 10 12 13 16 rings

> <PUBCHEM_HEAVY_ATOM_COUNT>
19

> <PUBCHEM_ATOM_DEF_STEREO_COUNT>
0

> <PUBCHEM_ATOM_UDEF_STEREO_COUNT>
1

> <PUBCHEM_BOND_DEF_STEREO_COUNT>
0

> <PUBCHEM_BOND_UDEF_STEREO_COUNT>
0

> <PUBCHEM_ISOTOPIC_ATOM_COUNT>
0

> <PUBCHEM_COMPONENT_COUNT>
1

> <PUBCHEM_CACTVS_TAUTO_COUNT>
2

> <PUBCHEM_CONFORMER_ID>
0096C81A00000002

> <PUBCHEM_MMFF94_ENERGY>
42.5938

> <PUBCHEM_FEATURE_SELFOVERLAP>
35.702

> <PUBCHEM_SHAPE_FINGERPRINT>
10366900 7 18187652413867843353
10693767 8 18201728323531395478
108634 29 17968106368682644691
10967382 1 18410577275708310128
11806522 49 18411138013268569628
11961588 58 17605293937555164484
12107183 9 17910966738579118913
12236239 1 17704358788066036985
12596602 18 17203611518778967363
12730499 353 18263931097384968809
13140716 1 18196081369070398448
13167823 11 18272931644304937573
13402501 40 18187651357638685459
13464513 79 18272371970973784694
13533116 47 18271525394876863187
13836976 161 18261113040577693908
13862211 1 18410292472301022986
13955234 65 18270959184426664297
14251717 144 18410011039493010128
14252887 29 17775008951391001292
14576447 43 18412826867550161156
14767858 380 18336283275283315222
14863182 85 18411987949121725774
15110567 62 18408604760311920867
15183329 4 18339631267126720725
15196674 1 18411136896914448943
15342816 4 18269281175021131134
15352361 1 18410572847486440023
15375462 189 18131625686325182125
15477762 27 18410855451717926068
15483637 11 17977383064762497115
15537594 2 18201999984497031519
15635459 17 18334012800471823915
16945 1 18192727657090274112
200 152 18272651268739972145
20028762 73 18201717358042369750
20281475 54 18339643313360148201
20645477 70 18334851749397852481
21033650 10 15864910903273365669
21197605 99 18051136092650108699
21267235 1 18342182146080623486
221357 26 18408319969809894037
221490 88 18336270045924180210
22224240 67 18128524050476830712
23379529 103 17768537079668602446
235170 7 17603573120005474599
23559900 14 18335412509218990413
23596394 208 18114168719099889893
23598288 3 17702948011795660889
239999 70 18201443605268332668
2748010 2 18194416691634105776
2871803 45 18333730204424122771
3060560 45 18336828688479311804
314194 84 18343299293150234239
3323516 105 18335139786773218681
33824 294 18410007771239279760
3421961 26 18412258428602291729
42630746 31 18270959154488473744
4283 87 18270387395562435959
4340502 62 18129091398255151832
46194498 28 17676486198477586965
465052 167 18202288030493883351
5104073 3 18271240513205454705
556388 4 18337105657724183387
59682541 52 18194934450131426853
602551 16 15194992912354599805
7970288 3 18124875655462300366
9709674 26 18334015004090694595

> <PUBCHEM_SHAPE_MULTIPOLES>
374.29
10.69
3.16
0.75
19.56
0.72
0.04
4.3
-1.48
-2.96
0.2
0.36
0.03
0.03

> <PUBCHEM_SHAPE_SELFOVERLAP>
798.693

> <PUBCHEM_SHAPE_VOLUME>
211.5

> <PUBCHEM_COORDINATE_TYPE>
2
5
10

$$$$
