3022645
  -OEChem-09252021313D

 46 48  0     1  0  0  0  0  0999 V2000
   -3.2315   -0.0024    0.2889 O   0  0  0  0  0  0  0  0  0  0  0  0
    0.2468   -0.7418   -0.5063 O   0  0  0  0  0  0  0  0  0  0  0  0
    2.7257    0.4428   -0.9306 O   0  0  0  0  0  0  0  0  0  0  0  0
   -3.6297   -2.3707   -1.2363 N   0  0  0  0  0  0  0  0  0  0  0  0
   -2.1554   -0.5569   -0.4776 C   0  0  1  0  0  0  0  0  0  0  0  0
   -0.8542   -0.2235    0.2387 C   0  0  2  0  0  0  0  0  0  0  0  0
   -2.3400   -2.0710   -0.6094 C   0  0  0  0  0  0  0  0  0  0  0  0
   -4.7173   -1.7615   -0.4695 C   0  0  0  0  0  0  0  0  0  0  0  0
   -4.4908   -0.2610   -0.3341 C   0  0  0  0  0  0  0  0  0  0  0  0
   -0.6711    1.2649    0.4242 C   0  0  0  0  0  0  0  0  0  0  0  0
   -0.0193    1.9952   -0.5559 C   0  0  0  0  0  0  0  0  0  0  0  0
   -1.1584    1.8701    1.5710 C   0  0  0  0  0  0  0  0  0  0  0  0
    1.3403   -1.1400    0.2130 C   0  0  0  0  0  0  0  0  0  0  0  0
    0.1501    3.3691   -0.3844 C   0  0  0  0  0  0  0  0  0  0  0  0
   -0.9891    3.2440    1.7424 C   0  0  0  0  0  0  0  0  0  0  0  0
    2.5792   -0.5437   -0.0026 C   0  0  0  0  0  0  0  0  0  0  0  0
   -0.3348    3.9935    0.7647 C   0  0  0  0  0  0  0  0  0  0  0  0
    1.1990   -2.1480    1.1626 C   0  0  0  0  0  0  0  0  0  0  0  0
    3.6864   -0.9588    0.7373 C   0  0  0  0  0  0  0  0  0  0  0  0
    2.3061   -2.5632    1.9026 C   0  0  0  0  0  0  0  0  0  0  0  0
    3.5498   -1.9685    1.6899 C   0  0  0  0  0  0  0  0  0  0  0  0
    3.6421    0.1995   -1.9961 C   0  0  0  0  0  0  0  0  0  0  0  0
    3.1662    0.9317   -3.2326 C   0  0  0  0  0  0  0  0  0  0  0  0
   -2.1553   -0.0984   -1.4770 H   0  0  0  0  0  0  0  0  0  0  0  0
   -0.8966   -0.6724    1.2410 H   0  0  0  0  0  0  0  0  0  0  0  0
   -1.5438   -2.5047   -1.2235 H   0  0  0  0  0  0  0  0  0  0  0  0
   -2.3000   -2.5527    0.3757 H   0  0  0  0  0  0  0  0  0  0  0  0
   -4.7678   -2.2257    0.5228 H   0  0  0  0  0  0  0  0  0  0  0  0
   -5.6701   -1.9492   -0.9747 H   0  0  0  0  0  0  0  0  0  0  0  0
   -4.5274    0.2441   -1.3070 H   0  0  0  0  0  0  0  0  0  0  0  0
   -5.2699    0.1788    0.2965 H   0  0  0  0  0  0  0  0  0  0  0  0
   -3.7634   -3.3808   -1.2717 H   0  0  0  0  0  0  0  0  0  0  0  0
    0.3365    1.5401   -1.4748 H   0  0  0  0  0  0  0  0  0  0  0  0
   -1.6678    1.2971    2.3404 H   0  0  0  0  0  0  0  0  0  0  0  0
    0.6529    3.9538   -1.1492 H   0  0  0  0  0  0  0  0  0  0  0  0
   -1.3666    3.7303    2.6371 H   0  0  0  0  0  0  0  0  0  0  0  0
   -0.2045    5.0635    0.8974 H   0  0  0  0  0  0  0  0  0  0  0  0
    0.2436   -2.6380    1.3274 H   0  0  0  0  0  0  0  0  0  0  0  0
    4.6598   -0.4995    0.5883 H   0  0  0  0  0  0  0  0  0  0  0  0
    2.2009   -3.3525    2.6412 H   0  0  0  0  0  0  0  0  0  0  0  0
    4.4115   -2.2914    2.2667 H   0  0  0  0  0  0  0  0  0  0  0  0
    4.6317    0.5666   -1.7033 H   0  0  0  0  0  0  0  0  0  0  0  0
    3.7137   -0.8726   -2.2177 H   0  0  0  0  0  0  0  0  0  0  0  0
    3.8552    0.7785   -4.0678 H   0  0  0  0  0  0  0  0  0  0  0  0
    2.1706    0.5833   -3.5266 H   0  0  0  0  0  0  0  0  0  0  0  0
    3.0815    2.0057   -3.0362 H   0  0  0  0  0  0  0  0  0  0  0  0
  1  5  1  0  0  0  0
  1  9  1  0  0  0  0
  2  6  1  0  0  0  0
  2 13  1  0  0  0  0
  3 16  1  0  0  0  0
  3 22  1  0  0  0  0
  4  7  1  0  0  0  0
  4  8  1  0  0  0  0
  4 32  1  0  0  0  0
  5  6  1  0  0  0  0
  5  7  1  0  0  0  0
  5 24  1  0  0  0  0
  6 10  1  0  0  0  0
  6 25  1  0  0  0  0
  7 26  1  0  0  0  0
  7 27  1  0  0  0  0
  8  9  1  0  0  0  0
  8 28  1  0  0  0  0
  8 29  1  0  0  0  0
  9 30  1  0  0  0  0
  9 31  1  0  0  0  0
 10 11  2  0  0  0  0
 10 12  1  0  0  0  0
 11 14  1  0  0  0  0
 11 33  1  0  0  0  0
 12 15  2  0  0  0  0
 12 34  1  0  0  0  0
 13 16  1  0  0  0  0
 13 18  2  0  0  0  0
 14 17  2  0  0  0  0
 14 35  1  0  0  0  0
 15 17  1  0  0  0  0
 15 36  1  0  0  0  0
 16 19  2  0  0  0  0
 17 37  1  0  0  0  0
 18 20  1  0  0  0  0
 18 38  1  0  0  0  0
 19 21  1  0  0  0  0
 19 39  1  0  0  0  0
 20 21  2  0  0  0  0
 20 40  1  0  0  0  0
 21 41  1  0  0  0  0
 22 23  1  0  0  0  0
 22 42  1  0  0  0  0
 22 43  1  0  0  0  0
 23 44  1  0  0  0  0
 23 45  1  0  0  0  0
 23 46  1  0  0  0  0
M  END
> <PUBCHEM_COMPOUND_CID>
3022645

> <PUBCHEM_CONFORMER_RMSD>
0.8

> <PUBCHEM_CONFORMER_DIVERSEORDER>
2
112
42
20
150
135
75
48
210
199
54
184
136
212
171
187
96
132
99
83
66
141
95
153
104
182
177
145
169
166
92
160
23
8
183
139
179
181
70
144
55
59
6
209
109
146
214
154
50
197
164
38
125
174
192
91
16
130
137
62
25
188
203
173
57
15
85
93
134
58
151
52
167
36
108
202
40
124
116
157
158
84
33
79
127
161
193
35
178
162
216
30
4
87
172
103
201
29
110
180
117
88
133
69
131
114
22
163
51
49
34
41
205
31
81
111
129
101
12
189
170
138
56
10
152
155
61
119
213
11
159
147
148
149
60
64
196
185
44
45
175
76
63
21
195
82
118
28
194
106
204
17
19
207
102
200
208
122
53
126
98
18
71
72
198
27
24
142
7
73
94
65
43
215
100
3
115
68
26
190
206
191
140
128
176
186
78
32
80
37
77
14
165
46
67
105
97
90
1
120
168
89
47
5
211
121
143
13
107
9
39
156
86
74
123
113

> <PUBCHEM_MMFF94_PARTIAL_CHARGES>
32
1 -0.56
10 -0.14
11 -0.15
12 -0.15
13 0.08
14 -0.15
15 -0.15
16 0.08
17 -0.15
18 -0.15
19 -0.15
2 -0.36
20 -0.15
21 -0.15
22 0.28
3 -0.36
32 0.36
33 0.15
34 0.15
35 0.15
36 0.15
37 0.15
38 0.15
39 0.15
4 -0.9
40 0.15
41 0.15
5 0.28
6 0.42
7 0.27
8 0.27
9 0.28

> <PUBCHEM_EFFECTIVE_ROTOR_COUNT>
7.2

> <PUBCHEM_PHARMACOPHORE_FEATURES>
8
1 1 acceptor
1 2 acceptor
1 3 acceptor
1 4 cation
1 4 donor
6 1 4 5 7 8 9 rings
6 10 11 12 14 15 17 rings
6 13 16 18 19 20 21 rings

> <PUBCHEM_HEAVY_ATOM_COUNT>
23

> <PUBCHEM_ATOM_DEF_STEREO_COUNT>
0

> <PUBCHEM_ATOM_UDEF_STEREO_COUNT>
2

> <PUBCHEM_BOND_DEF_STEREO_COUNT>
0

> <PUBCHEM_BOND_UDEF_STEREO_COUNT>
0

> <PUBCHEM_ISOTOPIC_ATOM_COUNT>
0

> <PUBCHEM_COMPONENT_COUNT>
1

> <PUBCHEM_CACTVS_TAUTO_COUNT>
1

> <PUBCHEM_CONFORMER_ID>
002E1F3500000002

> <PUBCHEM_MMFF94_ENERGY>
72.0456

> <PUBCHEM_FEATURE_SELFOVERLAP>
40.601

> <PUBCHEM_SHAPE_FINGERPRINT>
10369192 42 16342841279480987312
11578080 2 18044624629617514269
11725454 13 14852447808267446422
12035759 4 18336001790999524148
12293681 160 18118702125906088396
12553582 1 18343306968103791823
12643181 29 16902138307067588506
12788726 201 18339654330146259529
13004483 165 18194099851432606083
13009979 54 18262512568746076842
13149001 5 17760667144908884574
133893 2 17479976081370940173
13583140 156 16911673456676180258
14022347 108 18201168714577077151
14178342 30 17833249944839062730
14787075 74 18265605679632913648
14955137 171 17984172432909161643
15375462 189 18335419080228744747
15475509 8 17701569284490963517
15664445 248 18129952285546470358
15842332 3 18117291250481478114
17876694 64 18042392539829982968
1813 80 18060140981021741551
192875 21 17749384824431850090
20567600 347 16903540750926174391
20600515 1 17917136299458097091
20642791 239 18190478227428974277
20715895 44 17539673717546700725
22112679 90 18340212898937457857
2255824 54 18122334942167439655
23366157 5 18048300439302662745
23419403 2 15379550246860517620
23557571 272 18201148846047614742
23558518 356 17977670805541987891
23598288 3 18192164697919281353
23598291 2 17899430683754564118
25147074 1 18116725019336592366
266924 1 18261683567021931478
350125 39 17480022986745975579
352729 6 17763179142642519629
394222 165 16733548363865682712
6992083 37 17466782676424780418
7164475 11 18266454313420219894
7364860 26 17912074255698620017
7471813 234 18334563630043496358
7615 1 18116721699121222264
81228 2 18199755747693207067
90316 7 18269825433393061147

> <PUBCHEM_SHAPE_MULTIPOLES>
450.74
7.16
4.16
2.09
2.88
3.68
1.04
-5.71
2.28
1.35
-1.68
-2.48
0.42
-3.27

> <PUBCHEM_SHAPE_SELFOVERLAP>
955.72

> <PUBCHEM_SHAPE_VOLUME>
250.6

> <PUBCHEM_COORDINATE_TYPE>
2
5
10

$$$$
