54940
  -OEChem-09252021313D

 45 46  0     1  0  0  0  0  0999 V2000
   -4.0476    3.1798   -0.1635 Br  0  0  0  0  0  0  0  0  0  0  0  0
   -0.1570   -1.1500   -1.4131 O   0  0  0  0  0  0  0  0  0  0  0  0
   -1.2676    1.8800   -0.6316 O   0  0  0  0  0  0  0  0  0  0  0  0
   -2.4154   -2.5887    0.6359 O   0  0  0  0  0  0  0  0  0  0  0  0
    4.1121   -0.1449    0.2233 N   0  0  2  0  0  0  0  0  0  0  0  0
    0.4435   -0.7028    0.7830 N   0  0  0  0  0  0  0  0  0  0  0  0
    2.6708    0.1403    0.2564 C   0  0  2  0  0  0  0  0  0  0  0  0
    2.5763    1.2728    1.2810 C   0  0  0  0  0  0  0  0  0  0  0  0
    3.9442    1.9461    1.2640 C   0  0  0  0  0  0  0  0  0  0  0  0
    4.7576    1.1700    0.2415 C   0  0  0  0  0  0  0  0  0  0  0  0
    1.8254   -1.0605    0.6616 C   0  0  0  0  0  0  0  0  0  0  0  0
    4.5200   -0.9243   -0.9393 C   0  0  0  0  0  0  0  0  0  0  0  0
    6.0213   -1.1217   -0.9760 C   0  0  0  0  0  0  0  0  0  0  0  0
   -0.4522   -0.7772   -0.2808 C   0  0  0  0  0  0  0  0  0  0  0  0
   -1.8455   -0.3454    0.0011 C   0  0  0  0  0  0  0  0  0  0  0  0
   -2.1926    0.9783   -0.1896 C   0  0  0  0  0  0  0  0  0  0  0  0
   -2.7574   -1.2827    0.4474 C   0  0  0  0  0  0  0  0  0  0  0  0
   -3.5016    1.3801    0.0760 C   0  0  0  0  0  0  0  0  0  0  0  0
   -4.0663   -0.8810    0.7131 C   0  0  0  0  0  0  0  0  0  0  0  0
   -4.4385    0.4505    0.5274 C   0  0  0  0  0  0  0  0  0  0  0  0
   -1.1534    2.0482   -2.0419 C   0  0  0  0  0  0  0  0  0  0  0  0
   -2.5760   -3.4669   -0.4760 C   0  0  0  0  0  0  0  0  0  0  0  0
    2.3323    0.5266   -0.7162 H   0  0  0  0  0  0  0  0  0  0  0  0
    1.7844    1.9823    1.0161 H   0  0  0  0  0  0  0  0  0  0  0  0
    2.3678    0.9037    2.2926 H   0  0  0  0  0  0  0  0  0  0  0  0
    4.4021    1.8781    2.2579 H   0  0  0  0  0  0  0  0  0  0  0  0
    3.8717    3.0059    1.0000 H   0  0  0  0  0  0  0  0  0  0  0  0
    5.8073    1.1254    0.5483 H   0  0  0  0  0  0  0  0  0  0  0  0
    4.6949    1.6694   -0.7341 H   0  0  0  0  0  0  0  0  0  0  0  0
    2.1432   -1.4584    1.6322 H   0  0  0  0  0  0  0  0  0  0  0  0
    1.9156   -1.8683   -0.0724 H   0  0  0  0  0  0  0  0  0  0  0  0
    4.0547   -1.9154   -0.8971 H   0  0  0  0  0  0  0  0  0  0  0  0
    4.1937   -0.4548   -1.8760 H   0  0  0  0  0  0  0  0  0  0  0  0
    0.1113   -0.3715    1.6844 H   0  0  0  0  0  0  0  0  0  0  0  0
    6.2811   -1.8365   -1.7645 H   0  0  0  0  0  0  0  0  0  0  0  0
    6.3970   -1.5262   -0.0299 H   0  0  0  0  0  0  0  0  0  0  0  0
    6.5587   -0.1943   -1.1975 H   0  0  0  0  0  0  0  0  0  0  0  0
   -4.8015   -1.5993    1.0658 H   0  0  0  0  0  0  0  0  0  0  0  0
   -5.4630    0.7452    0.7397 H   0  0  0  0  0  0  0  0  0  0  0  0
   -0.7625    3.0511   -2.2353 H   0  0  0  0  0  0  0  0  0  0  0  0
   -0.4467    1.3192   -2.4474 H   0  0  0  0  0  0  0  0  0  0  0  0
   -2.1189    1.9469   -2.5486 H   0  0  0  0  0  0  0  0  0  0  0  0
   -2.0398   -3.0984   -1.3553 H   0  0  0  0  0  0  0  0  0  0  0  0
   -2.1672   -4.4434   -0.2023 H   0  0  0  0  0  0  0  0  0  0  0  0
   -3.6382   -3.5870   -0.7113 H   0  0  0  0  0  0  0  0  0  0  0  0
  1 18  1  0  0  0  0
  2 14  2  0  0  0  0
  3 16  1  0  0  0  0
  3 21  1  0  0  0  0
  4 17  1  0  0  0  0
  4 22  1  0  0  0  0
  5  7  1  0  0  0  0
  5 10  1  0  0  0  0
  5 12  1  0  0  0  0
  6 11  1  0  0  0  0
  6 14  1  0  0  0  0
  6 34  1  0  0  0  0
  7  8  1  0  0  0  0
  7 11  1  0  0  0  0
  7 23  1  0  0  0  0
  8  9  1  0  0  0  0
  8 24  1  0  0  0  0
  8 25  1  0  0  0  0
  9 10  1  0  0  0  0
  9 26  1  0  0  0  0
  9 27  1  0  0  0  0
 10 28  1  0  0  0  0
 10 29  1  0  0  0  0
 11 30  1  0  0  0  0
 11 31  1  0  0  0  0
 12 13  1  0  0  0  0
 12 32  1  0  0  0  0
 12 33  1  0  0  0  0
 13 35  1  0  0  0  0
 13 36  1  0  0  0  0
 13 37  1  0  0  0  0
 14 15  1  0  0  0  0
 15 16  1  0  0  0  0
 15 17  2  0  0  0  0
 16 18  2  0  0  0  0
 17 19  1  0  0  0  0
 18 20  1  0  0  0  0
 19 20  2  0  0  0  0
 19 38  1  0  0  0  0
 20 39  1  0  0  0  0
 21 40  1  0  0  0  0
 21 41  1  0  0  0  0
 21 42  1  0  0  0  0
 22 43  1  0  0  0  0
 22 44  1  0  0  0  0
 22 45  1  0  0  0  0
M  END
> <PUBCHEM_COMPOUND_CID>
54940

> <PUBCHEM_CONFORMER_RMSD>
0.8

> <PUBCHEM_CONFORMER_DIVERSEORDER>
2
160
20
123
64
100
42
159
60
153
3
15
91
145
22
161
152
95
116
68
83
59
142
31
37
67
87
9
126
4
96
127
115
89
8
120
99
113
156
36
57
155
72
45
122
80
168
136
62
154
117
131
48
92
90
70
102
108
24
128
29
1
150
28
114
130
76
5
61
121
157
23
132
149
151
50
98
38
26
66
135
40
77
124
56
82
21
138
43
51
146
73
165
103
44
54
46
75
71
16
27
111
101
41
118
18
88
6
110
53
94
30
84
105
65
32
162
141
63
25
140
78
147
17
33
58
10
13
167
133
19
81
14
107
106
52
143
134
74
79
148
12
137
47
97
7
55
69
119
34
85
104
125
49
109
93
112
129
11
158
139
164
163
166
144
39
35
86

> <PUBCHEM_MMFF94_PARTIAL_CHARGES>
22
1 -0.11
10 0.27
11 0.3
12 0.27
14 0.54
15 0.09
16 0.08
17 0.08
18 0.11
19 -0.15
2 -0.57
20 -0.15
21 0.28
22 0.28
3 -0.36
34 0.37
38 0.15
39 0.15
4 -0.36
5 -0.81
6 -0.73
7 0.27

> <PUBCHEM_EFFECTIVE_ROTOR_COUNT>
8

> <PUBCHEM_PHARMACOPHORE_FEATURES>
8
1 1 hydrophobe
1 2 acceptor
1 3 acceptor
1 4 acceptor
1 5 cation
1 6 donor
5 5 7 8 9 10 rings
6 15 16 17 18 19 20 rings

> <PUBCHEM_HEAVY_ATOM_COUNT>
22

> <PUBCHEM_ATOM_DEF_STEREO_COUNT>
0

> <PUBCHEM_ATOM_UDEF_STEREO_COUNT>
1

> <PUBCHEM_BOND_DEF_STEREO_COUNT>
0

> <PUBCHEM_BOND_UDEF_STEREO_COUNT>
0

> <PUBCHEM_ISOTOPIC_ATOM_COUNT>
0

> <PUBCHEM_COMPONENT_COUNT>
1

> <PUBCHEM_CACTVS_TAUTO_COUNT>
2

> <PUBCHEM_CONFORMER_ID>
0000D69C00000002

> <PUBCHEM_MMFF94_ENERGY>
67.112

> <PUBCHEM_FEATURE_SELFOVERLAP>
40.596

> <PUBCHEM_SHAPE_FINGERPRINT>
10366900 7 17458067066473238976
10369192 42 17768524242818579864
10498660 4 18040424486946792836
11045977 3 18342176656843672937
11132069 177 18334008432236928105
11370993 144 18131080332757632459
11405975 8 18342174475464413218
11552529 35 17630889506712911115
11595378 159 17167855336113901240
12011746 2 18409724046142915157
12173636 292 18410284818210404599
12390115 104 18268721506760847089
12623949 98 17485668253084722518
12633257 1 18191856830072962560
13140716 1 18046355403449502635
13583140 156 17845934151431333990
14341114 176 18341621442194592584
15042514 8 18264498450376701051
17844677 252 18410864278170956256
1813 80 17313943146665430325
20645477 56 18410862027560646259
20645477 70 17275111617809764214
21033648 29 18271796908933533848
21065198 57 18413388752525688456
221357 26 18273213080147394912
23227448 37 18339073890906719077
23557571 272 18410022026093265070
23559900 14 18272369772335709514
3298306 158 18200317602467644966
5104073 3 18188205403496849928
5281201 14 18343587369486339104
6287921 2 18120373417697810220
633830 44 18410567401509976814
7399639 24 17482534688147434296
90316 7 17531239518321101957

> <PUBCHEM_SHAPE_MULTIPOLES>
431.12
11.29
3.18
1.26
12.26
0.46
0.35
-1.81
-0.04
-3.64
0.34
0.5
-0.38
1.69

> <PUBCHEM_SHAPE_SELFOVERLAP>
877.826

> <PUBCHEM_SHAPE_VOLUME>
256.5

> <PUBCHEM_COORDINATE_TYPE>
2
5
10

$$$$
