5245
  -OEChem-09252021313D

 28 28  0     0  0  0  0  0  0999 V2000
    0.8024    1.6071    0.2558 P   0  0  0  0  0  0  0  0  0  0  0  0
    2.6095   -0.9913   -0.1967 P   0  0  0  0  0  0  0  0  0  0  0  0
    0.7950   -0.6166    1.5433 O   0  0  0  0  0  0  0  0  0  0  0  0
    1.1555    2.0721   -1.2514 O   0  0  0  0  0  0  0  0  0  0  0  0
    2.0959    2.0871    1.0975 O   0  0  0  0  0  0  0  0  0  0  0  0
    2.8716   -0.5480   -1.7288 O   0  0  0  0  0  0  0  0  0  0  0  0
    3.6744   -0.1060    0.6360 O   0  0  0  0  0  0  0  0  0  0  0  0
   -0.5061    2.1086    0.7908 O   0  0  0  0  0  0  0  0  0  0  0  0
    2.6724   -2.4676    0.0619 O   0  0  0  0  0  0  0  0  0  0  0  0
   -3.4719    0.7474   -0.7368 N   0  0  0  0  0  0  0  0  0  0  0  0
    0.9781   -0.2086    0.1869 C   0  0  0  0  0  0  0  0  0  0  0  0
   -0.0827   -0.8998   -0.7075 C   0  0  0  0  0  0  0  0  0  0  0  0
   -1.5297   -0.6183   -0.3882 C   0  0  0  0  0  0  0  0  0  0  0  0
   -2.2145   -1.4200    0.5018 C   0  0  0  0  0  0  0  0  0  0  0  0
   -2.1781    0.4400   -0.9799 C   0  0  0  0  0  0  0  0  0  0  0  0
   -3.5473   -1.1355    0.7776 C   0  0  0  0  0  0  0  0  0  0  0  0
   -4.1246   -0.0504    0.1379 C   0  0  0  0  0  0  0  0  0  0  0  0
    0.1056   -0.6263   -1.7537 H   0  0  0  0  0  0  0  0  0  0  0  0
    0.0613   -1.9877   -0.6640 H   0  0  0  0  0  0  0  0  0  0  0  0
   -0.0298   -0.2191    1.8693 H   0  0  0  0  0  0  0  0  0  0  0  0
   -1.7335   -2.2631    0.9887 H   0  0  0  0  0  0  0  0  0  0  0  0
   -1.6831    1.0930   -1.6912 H   0  0  0  0  0  0  0  0  0  0  0  0
    1.0969    3.0239   -1.4806 H   0  0  0  0  0  0  0  0  0  0  0  0
    2.2071    3.0415    1.2941 H   0  0  0  0  0  0  0  0  0  0  0  0
    3.6737   -0.8770   -2.1877 H   0  0  0  0  0  0  0  0  0  0  0  0
    4.6227   -0.3549    0.6097 H   0  0  0  0  0  0  0  0  0  0  0  0
   -4.1162   -1.7435    1.4717 H   0  0  0  0  0  0  0  0  0  0  0  0
   -5.1612    0.2138    0.3189 H   0  0  0  0  0  0  0  0  0  0  0  0
  1  4  1  0  0  0  0
  1  5  1  0  0  0  0
  1  8  2  0  0  0  0
  1 11  1  0  0  0  0
  2  6  1  0  0  0  0
  2  7  1  0  0  0  0
  2  9  2  0  0  0  0
  2 11  1  0  0  0  0
  3 11  1  0  0  0  0
  3 20  1  0  0  0  0
  4 23  1  0  0  0  0
  5 24  1  0  0  0  0
  6 25  1  0  0  0  0
  7 26  1  0  0  0  0
 10 15  1  0  0  0  0
 10 17  2  0  0  0  0
 11 12  1  0  0  0  0
 12 13  1  0  0  0  0
 12 18  1  0  0  0  0
 12 19  1  0  0  0  0
 13 14  1  0  0  0  0
 13 15  2  0  0  0  0
 14 16  2  0  0  0  0
 14 21  1  0  0  0  0
 15 22  1  0  0  0  0
 16 17  1  0  0  0  0
 16 27  1  0  0  0  0
 17 28  1  0  0  0  0
M  END
> <PUBCHEM_COMPOUND_CID>
5245

> <PUBCHEM_CONFORMER_RMSD>
0.6

> <PUBCHEM_CONFORMER_DIVERSEORDER>
1
7
5
2
8
6
4
3

> <PUBCHEM_MMFF94_PARTIAL_CHARGES>
26
1 1.24
10 -0.62
11 0.28
12 0.14
13 -0.14
14 -0.15
15 0.16
16 -0.15
17 0.16
2 1.24
20 0.4
21 0.15
22 0.15
23 0.5
24 0.5
25 0.5
26 0.5
27 0.15
28 0.15
3 -0.68
4 -0.77
5 -0.77
6 -0.77
7 -0.77
8 -0.7
9 -0.7

> <PUBCHEM_EFFECTIVE_ROTOR_COUNT>
4

> <PUBCHEM_PHARMACOPHORE_FEATURES>
12
1 10 acceptor
1 3 acceptor
1 3 donor
1 4 acceptor
1 5 acceptor
1 6 acceptor
1 7 acceptor
1 8 acceptor
1 9 acceptor
4 1 4 5 8 anion
4 2 6 7 9 anion
6 10 13 14 15 16 17 rings

> <PUBCHEM_HEAVY_ATOM_COUNT>
17

> <PUBCHEM_ATOM_DEF_STEREO_COUNT>
0

> <PUBCHEM_ATOM_UDEF_STEREO_COUNT>
0

> <PUBCHEM_BOND_DEF_STEREO_COUNT>
0

> <PUBCHEM_BOND_UDEF_STEREO_COUNT>
0

> <PUBCHEM_ISOTOPIC_ATOM_COUNT>
0

> <PUBCHEM_COMPONENT_COUNT>
1

> <PUBCHEM_CACTVS_TAUTO_COUNT>
1

> <PUBCHEM_CONFORMER_ID>
0000147D00000001

> <PUBCHEM_MMFF94_ENERGY>
-28.035

> <PUBCHEM_FEATURE_SELFOVERLAP>
60.982

> <PUBCHEM_SHAPE_FINGERPRINT>
10130415 120 18337388232064724786
104564 63 17914064104908302453
10465860 250 18335129848329977450
10922523 26 18336540607637015485
10980938 120 18269273641416469385
12932764 1 18408887373391596447
13134695 92 18201709631121273524
14115302 16 17968099681207119383
14648413 74 18337106868957351011
15219456 202 18337386149300771001
15653759 3 18259704510505907363
15775835 57 18055634173043387625
16945 1 18202281385905292758
19049666 15 18335692802614970841
20233049 118 18260822653237570372
20339313 130 18059866068480680855
21041028 32 18342744004991331249
21130352 189 18342734105112338457
21501502 16 18193840572778380439
21524375 3 17408516698799420528
22802520 49 17627519237269578702
23175994 123 18271249304971847455
23419403 2 14507826530032473433
23557571 272 18057041294940426470
23559900 14 18260264127174570342
2748010 2 18337663217667513765
305870 269 17983005945107619640
5337951 7 18188779464741668250
6049 1 18260830423355570189
633830 44 12180131929792302030
7364860 26 18341329006297798929
74978 22 18201435913182618631
81228 2 17982741766095955400

> <PUBCHEM_SHAPE_MULTIPOLES>
311.48
6.24
2.14
1.22
2.73
0.61
0.12
-1.58
-0.06
-1.24
-0.24
-0.4
0.15
0.61

> <PUBCHEM_SHAPE_SELFOVERLAP>
609.323

> <PUBCHEM_SHAPE_VOLUME>
187.5

> <PUBCHEM_COORDINATE_TYPE>
2
5
10

$$$$
