4979943
  -OEChem-09252021313D

 61 62  0     1  0  0  0  0  0999 V2000
    5.7316    0.3786   -1.4346 S   0  0  0  0  0  0  0  0  0  0  0  0
   -2.0202   -5.0497    0.4196 F   0  0  0  0  0  0  0  0  0  0  0  0
   -2.9307    2.9913    0.0078 O   0  0  0  0  0  0  0  0  0  0  0  0
   -5.3711    0.9281    1.2283 O   0  0  0  0  0  0  0  0  0  0  0  0
    7.1746    0.3925   -1.2779 O   0  0  0  0  0  0  0  0  0  0  0  0
    5.0244    1.5988   -1.7750 O   0  0  0  0  0  0  0  0  0  0  0  0
   -8.2229   -0.2997   -1.7881 O   0  0  0  0  0  0  0  0  0  0  0  0
   -7.8306    1.5752   -0.5680 O   0  0  0  0  0  0  0  0  0  0  0  0
    3.3701    1.2621    0.4719 N   0  0  0  0  0  0  0  0  0  0  0  0
    5.0085   -0.3537   -0.0473 N   0  0  0  0  0  0  0  0  0  0  0  0
    2.7732   -1.0589    0.2196 N   0  0  0  0  0  0  0  0  0  0  0  0
    1.7590    2.9656    0.9997 C   0  0  0  0  0  0  0  0  0  0  0  0
    2.0726    1.5295    0.7276 C   0  0  0  0  0  0  0  0  0  0  0  0
   -3.6067    0.6981   -0.4067 C   0  0  0  0  0  0  0  0  0  0  0  0
    1.0812    0.5698    0.7465 C   0  0  0  0  0  0  0  0  0  0  0  0
   -2.6707    1.6394    0.3718 C   0  0  1  0  0  0  0  0  0  0  0  0
   -5.0981    0.9809   -0.1699 C   0  0  1  0  0  0  0  0  0  0  0  0
    1.4940   -0.7202    0.4830 C   0  0  0  0  0  0  0  0  0  0  0  0
   -0.3226    0.9112    1.0331 C   0  0  0  0  0  0  0  0  0  0  0  0
   -1.2272    1.2782    0.1103 C   0  0  0  0  0  0  0  0  0  0  0  0
    2.0682    3.8710   -0.2058 C   0  0  0  0  0  0  0  0  0  0  0  0
    2.4791    3.4948    2.2528 C   0  0  0  0  0  0  0  0  0  0  0  0
   -6.0190    0.0120   -0.9149 C   0  0  0  0  0  0  0  0  0  0  0  0
    3.6461   -0.0336    0.2298 C   0  0  0  0  0  0  0  0  0  0  0  0
    0.5813   -1.8435    0.4668 C   0  0  0  0  0  0  0  0  0  0  0  0
    5.4909   -1.7101    0.3431 C   0  0  0  0  0  0  0  0  0  0  0  0
    0.3397   -2.5630    1.6371 C   0  0  0  0  0  0  0  0  0  0  0  0
   -0.0560   -2.2073   -0.7196 C   0  0  0  0  0  0  0  0  0  0  0  0
   -7.4311    0.5293   -1.0637 C   0  0  0  0  0  0  0  0  0  0  0  0
    5.3623   -0.8211   -2.6976 C   0  0  0  0  0  0  0  0  0  0  0  0
   -0.5391   -3.6460    1.6212 C   0  0  0  0  0  0  0  0  0  0  0  0
   -0.9348   -3.2903   -0.7356 C   0  0  0  0  0  0  0  0  0  0  0  0
   -1.1763   -4.0096    0.4348 C   0  0  0  0  0  0  0  0  0  0  0  0
    0.6934    3.1096    1.2043 H   0  0  0  0  0  0  0  0  0  0  0  0
   -3.3868   -0.3376   -0.1154 H   0  0  0  0  0  0  0  0  0  0  0  0
   -3.4066    0.7874   -1.4825 H   0  0  0  0  0  0  0  0  0  0  0  0
   -2.8797    1.5510    1.4445 H   0  0  0  0  0  0  0  0  0  0  0  0
   -5.3107    2.0066   -0.4928 H   0  0  0  0  0  0  0  0  0  0  0  0
   -0.6092    0.8450    2.0794 H   0  0  0  0  0  0  0  0  0  0  0  0
   -0.9086    1.3412   -0.9296 H   0  0  0  0  0  0  0  0  0  0  0  0
    1.5253    3.5318   -1.0950 H   0  0  0  0  0  0  0  0  0  0  0  0
    1.7696    4.9048   -0.0015 H   0  0  0  0  0  0  0  0  0  0  0  0
    3.1372    3.8705   -0.4458 H   0  0  0  0  0  0  0  0  0  0  0  0
    2.1825    4.5279    2.4639 H   0  0  0  0  0  0  0  0  0  0  0  0
    2.2308    2.8861    3.1293 H   0  0  0  0  0  0  0  0  0  0  0  0
    3.5677    3.4757    2.1295 H   0  0  0  0  0  0  0  0  0  0  0  0
   -6.0706   -0.9470   -0.3874 H   0  0  0  0  0  0  0  0  0  0  0  0
   -5.6355   -0.1519   -1.9285 H   0  0  0  0  0  0  0  0  0  0  0  0
   -2.3052    3.5540    0.4958 H   0  0  0  0  0  0  0  0  0  0  0  0
   -5.1565    0.0322    1.5396 H   0  0  0  0  0  0  0  0  0  0  0  0
    6.5779   -1.7718    0.2379 H   0  0  0  0  0  0  0  0  0  0  0  0
    5.0244   -2.4855   -0.2710 H   0  0  0  0  0  0  0  0  0  0  0  0
    5.2575   -1.8968    1.3967 H   0  0  0  0  0  0  0  0  0  0  0  0
    0.8287   -2.2926    2.5700 H   0  0  0  0  0  0  0  0  0  0  0  0
    0.1216   -1.6570   -1.6406 H   0  0  0  0  0  0  0  0  0  0  0  0
    5.7266   -0.4263   -3.6490 H   0  0  0  0  0  0  0  0  0  0  0  0
    5.8742   -1.7577   -2.4727 H   0  0  0  0  0  0  0  0  0  0  0  0
    4.2813   -0.9626   -2.7499 H   0  0  0  0  0  0  0  0  0  0  0  0
   -0.7275   -4.2063    2.5323 H   0  0  0  0  0  0  0  0  0  0  0  0
   -1.4315   -3.5734   -1.6589 H   0  0  0  0  0  0  0  0  0  0  0  0
   -9.1382    0.0444   -1.8670 H   0  0  0  0  0  0  0  0  0  0  0  0
  1  5  2  0  0  0  0
  1  6  2  0  0  0  0
  1 10  1  0  0  0  0
  1 30  1  0  0  0  0
  2 33  1  0  0  0  0
  3 16  1  0  0  0  0
  3 49  1  0  0  0  0
  4 17  1  0  0  0  0
  4 50  1  0  0  0  0
  7 29  1  0  0  0  0
  7 61  1  0  0  0  0
  8 29  2  0  0  0  0
  9 13  2  0  0  0  0
  9 24  1  0  0  0  0
 10 24  1  0  0  0  0
 10 26  1  0  0  0  0
 11 18  1  0  0  0  0
 11 24  2  0  0  0  0
 12 13  1  0  0  0  0
 12 21  1  0  0  0  0
 12 22  1  0  0  0  0
 12 34  1  0  0  0  0
 13 15  1  0  0  0  0
 14 16  1  0  0  0  0
 14 17  1  0  0  0  0
 14 35  1  0  0  0  0
 14 36  1  0  0  0  0
 15 18  2  0  0  0  0
 15 19  1  0  0  0  0
 16 20  1  0  0  0  0
 16 37  1  0  0  0  0
 17 23  1  0  0  0  0
 17 38  1  0  0  0  0
 18 25  1  0  0  0  0
 19 20  2  3  0  0  0
 19 39  1  0  0  0  0
 20 40  1  0  0  0  0
 21 41  1  0  0  0  0
 21 42  1  0  0  0  0
 21 43  1  0  0  0  0
 22 44  1  0  0  0  0
 22 45  1  0  0  0  0
 22 46  1  0  0  0  0
 23 29  1  0  0  0  0
 23 47  1  0  0  0  0
 23 48  1  0  0  0  0
 25 27  2  0  0  0  0
 25 28  1  0  0  0  0
 26 51  1  0  0  0  0
 26 52  1  0  0  0  0
 26 53  1  0  0  0  0
 27 31  1  0  0  0  0
 27 54  1  0  0  0  0
 28 32  2  0  0  0  0
 28 55  1  0  0  0  0
 30 56  1  0  0  0  0
 30 57  1  0  0  0  0
 30 58  1  0  0  0  0
 31 33  2  0  0  0  0
 31 59  1  0  0  0  0
 32 33  1  0  0  0  0
 32 60  1  0  0  0  0
M  END
> <PUBCHEM_COMPOUND_CID>
4979943

> <PUBCHEM_CONFORMER_RMSD>
1.2

> <PUBCHEM_CONFORMER_DIVERSEORDER>
1
22
51
34
49
58
21
53
54
28
20
18
23
46
7
50
12
32
42
8
61
65
30
26
10
19
4
38
52
64
43
37
29
47
74
67
66
73
70
5
31
2
33
71
69
59
63
68
55
45
72
27
39
35
56
13
11
36
15
40
3
14
9
41
57
6
16
17
62
25
44
48
24
60

> <PUBCHEM_MMFF94_PARTIAL_CHARGES>
38
1 1.33
10 -0.69
11 -0.62
12 0.14
13 0.17
15 0.03
16 0.42
17 0.28
18 0.31
19 -0.18
2 -0.19
20 -0.29
23 0.06
24 0.82
26 0.36
27 -0.15
28 -0.15
29 0.66
3 -0.68
30 0.11
31 -0.15
32 -0.15
33 0.19
39 0.15
4 -0.68
40 0.15
49 0.4
5 -0.65
50 0.4
54 0.15
55 0.15
59 0.15
6 -0.65
60 0.15
61 0.5
7 -0.65
8 -0.57
9 -0.62

> <PUBCHEM_EFFECTIVE_ROTOR_COUNT>
10

> <PUBCHEM_PHARMACOPHORE_FEATURES>
13
1 3 acceptor
1 3 donor
1 4 acceptor
1 4 donor
1 5 acceptor
1 6 acceptor
1 7 acceptor
1 8 acceptor
1 9 acceptor
3 12 21 22 hydrophobe
3 7 8 29 anion
6 25 27 28 31 32 33 rings
6 9 11 13 15 18 24 rings

> <PUBCHEM_HEAVY_ATOM_COUNT>
33

> <PUBCHEM_ATOM_DEF_STEREO_COUNT>
0

> <PUBCHEM_ATOM_UDEF_STEREO_COUNT>
2

> <PUBCHEM_BOND_DEF_STEREO_COUNT>
0

> <PUBCHEM_BOND_UDEF_STEREO_COUNT>
1

> <PUBCHEM_ISOTOPIC_ATOM_COUNT>
0

> <PUBCHEM_COMPONENT_COUNT>
1

> <PUBCHEM_CACTVS_TAUTO_COUNT>
3

> <PUBCHEM_CONFORMER_ID>
004BFCE700000001

> <PUBCHEM_MMFF94_ENERGY>
85.7126

> <PUBCHEM_FEATURE_SELFOVERLAP>
66.055

> <PUBCHEM_SHAPE_FINGERPRINT>
10165383 225 18186519895258220326
10693767 8 18059013861265436206
10864689 126 18411695474781105985
1100329 8 18411974784529979410
11115154 58 17203335472683701913
11421498 54 17274539803001574947
11578080 2 18120659282531998308
11607047 74 16772087362536443929
11991303 11 17968383432812435039
13149001 5 18342178899375673360
13540713 4 18055071231885499824
1361 2 18337098060713182761
13692114 37 18199731678697181595
15131766 46 15648769105538887422
15439362 3 18266453385539401369
15775530 1 17983575492637275200
17492 54 18335708217094334410
19301679 30 10447663378308350860
19319366 153 17894909599405340906
20028762 73 18131062710781415727
20465049 17 18343578538759051175
20775438 99 17985525978481901500
21344244 181 17846783996320609055
21781051 124 18187652435464116651
21814621 53 15266498413768348682
23569943 247 16913713007405700174
23576562 1 18116724099760430852
25223398 141 17896615049161131739
283562 15 17981611468723136648
3178227 256 18336839619128765721
4058900 60 18189058590729782275
437795 70 18202007641859237422
484989 97 18339084916451869059
58260988 647 16415206616146719470
59755656 215 18343864390323332471
70251023 43 17910125925743219994

> <PUBCHEM_SHAPE_MULTIPOLES>
625.54
16.52
5.01
1.74
22.83
3.35
-0.41
-5.86
-12.12
0.34
2.23
-1.49
-0.01
0.83

> <PUBCHEM_SHAPE_SELFOVERLAP>
1287.631

> <PUBCHEM_SHAPE_VOLUME>
362.9

> <PUBCHEM_COORDINATE_TYPE>
2
5
10

$$$$
