58505
  -OEChem-09252021313D

 44 44  0     0  0  0  0  0  0999 V2000
    5.6111    0.8479   -0.2205 S   0  0  0  0  0  0  0  0  0  0  0  0
   -1.2576   -1.8380    1.0395 O   0  0  0  0  0  0  0  0  0  0  0  0
    6.8953    0.8343   -0.8960 O   0  0  0  0  0  0  0  0  0  0  0  0
    4.7938    2.0448   -0.2155 O   0  0  0  0  0  0  0  0  0  0  0  0
   -5.2025    0.2377   -0.0284 N   0  0  0  0  0  0  0  0  0  0  0  0
   -1.5182    0.3974    0.4776 N   0  0  0  0  0  0  0  0  0  0  0  0
    4.7027   -0.5158   -0.7511 N   0  0  0  0  0  0  0  0  0  0  0  0
   -3.7882    0.1601   -0.3925 C   0  0  0  0  0  0  0  0  0  0  0  0
   -5.5343    1.5793    0.4498 C   0  0  0  0  0  0  0  0  0  0  0  0
   -6.0443   -0.1210   -1.1692 C   0  0  0  0  0  0  0  0  0  0  0  0
   -2.9141    0.4953    0.8070 C   0  0  0  0  0  0  0  0  0  0  0  0
   -6.9860    1.6616    0.8904 C   0  0  0  0  0  0  0  0  0  0  0  0
   -5.7130   -1.5131   -1.6797 C   0  0  0  0  0  0  0  0  0  0  0  0
   -0.7936   -0.7798    0.6232 C   0  0  0  0  0  0  0  0  0  0  0  0
    0.6463   -0.7100    0.2640 C   0  0  0  0  0  0  0  0  0  0  0  0
    3.3194   -0.5812   -0.4041 C   0  0  0  0  0  0  0  0  0  0  0  0
    1.5273   -1.5801    0.8719 C   0  0  0  0  0  0  0  0  0  0  0  0
    1.0561    0.2222   -0.6665 C   0  0  0  0  0  0  0  0  0  0  0  0
    2.8791   -1.5149    0.5340 C   0  0  0  0  0  0  0  0  0  0  0  0
    2.4079    0.2874   -1.0044 C   0  0  0  0  0  0  0  0  0  0  0  0
    5.9128    0.3858    1.4706 C   0  0  0  0  0  0  0  0  0  0  0  0
   -3.5116   -0.8536   -0.7013 H   0  0  0  0  0  0  0  0  0  0  0  0
   -3.5501    0.8287   -1.2309 H   0  0  0  0  0  0  0  0  0  0  0  0
   -4.9672    1.8333    1.3492 H   0  0  0  0  0  0  0  0  0  0  0  0
   -5.3283    2.3495   -0.3039 H   0  0  0  0  0  0  0  0  0  0  0  0
   -7.0980   -0.1575   -0.8740 H   0  0  0  0  0  0  0  0  0  0  0  0
   -5.9545    0.6025   -1.9894 H   0  0  0  0  0  0  0  0  0  0  0  0
   -3.1320   -0.1692    1.6511 H   0  0  0  0  0  0  0  0  0  0  0  0
   -3.0305    1.5288    1.1417 H   0  0  0  0  0  0  0  0  0  0  0  0
   -1.0606    1.2543    0.1865 H   0  0  0  0  0  0  0  0  0  0  0  0
   -7.1478    2.5895    1.4511 H   0  0  0  0  0  0  0  0  0  0  0  0
   -7.2584    0.8308    1.5505 H   0  0  0  0  0  0  0  0  0  0  0  0
   -7.6794    1.6861    0.0441 H   0  0  0  0  0  0  0  0  0  0  0  0
   -5.6500   -2.2426   -0.8649 H   0  0  0  0  0  0  0  0  0  0  0  0
   -6.5056   -1.8515   -2.3571 H   0  0  0  0  0  0  0  0  0  0  0  0
   -4.7833   -1.5384   -2.2565 H   0  0  0  0  0  0  0  0  0  0  0  0
    1.2017   -2.3090    1.6079 H   0  0  0  0  0  0  0  0  0  0  0  0
    0.3749    0.8890   -1.1844 H   0  0  0  0  0  0  0  0  0  0  0  0
    3.5808   -2.1952    1.0096 H   0  0  0  0  0  0  0  0  0  0  0  0
    2.7328    1.0062   -1.7521 H   0  0  0  0  0  0  0  0  0  0  0  0
    5.1922   -1.4185   -0.6852 H   0  0  0  0  0  0  0  0  0  0  0  0
    6.5521    1.1503    1.9180 H   0  0  0  0  0  0  0  0  0  0  0  0
    4.9642    0.3415    2.0080 H   0  0  0  0  0  0  0  0  0  0  0  0
    6.4232   -0.5788    1.4906 H   0  0  0  0  0  0  0  0  0  0  0  0
  1  3  2  0  0  0  0
  1  4  2  0  0  0  0
  1  7  1  0  0  0  0
  1 21  1  0  0  0  0
  2 14  2  0  0  0  0
  5  8  1  0  0  0  0
  5  9  1  0  0  0  0
  5 10  1  0  0  0  0
  6 11  1  0  0  0  0
  6 14  1  0  0  0  0
  6 30  1  0  0  0  0
  7 16  1  0  0  0  0
  7 41  1  0  0  0  0
  8 11  1  0  0  0  0
  8 22  1  0  0  0  0
  8 23  1  0  0  0  0
  9 12  1  0  0  0  0
  9 24  1  0  0  0  0
  9 25  1  0  0  0  0
 10 13  1  0  0  0  0
 10 26  1  0  0  0  0
 10 27  1  0  0  0  0
 11 28  1  0  0  0  0
 11 29  1  0  0  0  0
 12 31  1  0  0  0  0
 12 32  1  0  0  0  0
 12 33  1  0  0  0  0
 13 34  1  0  0  0  0
 13 35  1  0  0  0  0
 13 36  1  0  0  0  0
 14 15  1  0  0  0  0
 15 17  2  0  0  0  0
 15 18  1  0  0  0  0
 16 19  2  0  0  0  0
 16 20  1  0  0  0  0
 17 19  1  0  0  0  0
 17 37  1  0  0  0  0
 18 20  2  0  0  0  0
 18 38  1  0  0  0  0
 19 39  1  0  0  0  0
 20 40  1  0  0  0  0
 21 42  1  0  0  0  0
 21 43  1  0  0  0  0
 21 44  1  0  0  0  0
M  END
> <PUBCHEM_COMPOUND_CID>
58505

> <PUBCHEM_CONFORMER_RMSD>
0.8

> <PUBCHEM_CONFORMER_DIVERSEORDER>
3
215
70
191
61
129
192
69
204
111
52
126
302
89
71
32
116
254
140
49
47
99
133
315
144
156
172
121
189
93
73
292
10
64
107
147
30
134
65
83
146
92
272
67
291
211
182
81
269
259
35
141
12
280
278
173
283
128
27
253
238
201
138
171
44
33
210
120
264
177
263
75
14
186
200
123
78
152
236
296
268
151
45
148
276
154
112
217
232
17
150
43
310
36
193
26
248
261
275
242
80
124
159
230
137
274
130
2
170
38
288
84
194
234
220
240
306
16
13
218
98
214
24
287
209
300
312
136
88
257
163
166
282
301
42
11
39
195
286
229
90
142
241
114
277
72
149
82
40
87
184
251
174
307
267
180
228
18
77
181
109
104
197
54
289
273
285
110
28
153
284
187
294
305
231
279
314
311
208
175
95
245
76
239
255
219
21
113
262
58
313
216
143
100
266
157
37
118
199
290
48
237
125
243
227
122
304
9
132
281
15
258
60
85
224
179
249
74
188
233
117
158
63
206
51
223
19
190
31
102
96
221
94
252
293
131
127
46
256
246
244
205
176
22
270
299
160
34
53
164
185
169
202
139
62
178
101
265
23
308
213
235
250
203
25
59
155
108
119
91
66
183
297
198
271
303
6
20
68
115
41
57
222
165
50
86
97
167
298
5
295
106
56
212
135
309
105
196
55
4
260
207
161
145
1
103
226
162
79
7
29
168
225
247
8

> <PUBCHEM_MMFF94_PARTIAL_CHARGES>
25
1 1.33
10 0.27
11 0.3
14 0.54
15 0.09
16 0.2
17 -0.15
18 -0.15
19 -0.15
2 -0.57
20 -0.15
21 0.11
3 -0.65
30 0.37
37 0.15
38 0.15
39 0.15
4 -0.65
40 0.15
41 0.42
5 -0.81
6 -0.73
7 -0.76
8 0.27
9 0.27

> <PUBCHEM_EFFECTIVE_ROTOR_COUNT>
9

> <PUBCHEM_PHARMACOPHORE_FEATURES>
7
1 2 acceptor
1 3 acceptor
1 4 acceptor
1 5 cation
1 6 donor
1 7 donor
6 15 16 17 18 19 20 rings

> <PUBCHEM_HEAVY_ATOM_COUNT>
21

> <PUBCHEM_ATOM_DEF_STEREO_COUNT>
0

> <PUBCHEM_ATOM_UDEF_STEREO_COUNT>
0

> <PUBCHEM_BOND_DEF_STEREO_COUNT>
0

> <PUBCHEM_BOND_UDEF_STEREO_COUNT>
0

> <PUBCHEM_ISOTOPIC_ATOM_COUNT>
0

> <PUBCHEM_COMPONENT_COUNT>
1

> <PUBCHEM_CACTVS_TAUTO_COUNT>
3

> <PUBCHEM_CONFORMER_ID>
0000E48900000003

> <PUBCHEM_MMFF94_ENERGY>
44.7181

> <PUBCHEM_FEATURE_SELFOVERLAP>
35.539

> <PUBCHEM_SHAPE_FINGERPRINT>
10 15 15647062580938555773
10595046 47 18343301436201517975
11089746 13 18408602582683938676
11646440 116 17603595114222234829
12236239 1 18342737395078613727
13533116 47 18336262332880783370
13685833 64 10015864267380818100
1420 363 14189576346916439439
14251718 22 17775846826179456567
14251764 18 11386373646619207568
14350574 20 12967131610036939234
14528608 73 18342455949908055208
15142383 8 13623516966486144054
18222031 100 11743833638453051555
20281389 69 15791736312505389269
21150785 3 17846497070987668559
220451 1 17846499201972091515
23035841 295 12175622879940714172
23081809 10 18341323410493761891
23402539 116 18342175549179505959
23402655 69 18409730651549558047
23424782 7 17202756137287367415
2767999 5 17967812755874549741
2838139 119 18114178644405755837
29717793 49 18059581230808627214
300161 21 18409165477108623257
34797466 226 16271927168524310240
34934 24 18186802491506549930
351380 3 10952048931381210108
4072396 5 17530956982814042362
4325135 7 18272930544566645021
4340502 62 15936695895330535872
465052 167 9943517527248887456
5104073 3 17821453447682096251
543368 44 18408605843107669153
59682541 52 17916604042105637462

> <PUBCHEM_SHAPE_MULTIPOLES>
403.47
19.16
1.69
1.27
7.5
0.04
0.05
8.1
2.97
0.85
-0.18
0.12
-0.23
-1.85

> <PUBCHEM_SHAPE_SELFOVERLAP>
797.51

> <PUBCHEM_SHAPE_VOLUME>
242.1

> <PUBCHEM_COORDINATE_TYPE>
2
5
10

$$$$
