11306691
  -OEChem-09252021313D

 43 45  0     1  0  0  0  0  0999 V2000
    7.7679   -0.2564    0.2267 F   0  0  0  0  0  0  0  0  0  0  0  0
    6.4145   -1.8083    0.9242 F   0  0  0  0  0  0  0  0  0  0  0  0
    6.4769   -1.2917   -1.1931 F   0  0  0  0  0  0  0  0  0  0  0  0
   -3.2465   -2.0654   -0.0828 F   0  0  0  0  0  0  0  0  0  0  0  0
   -7.4661    1.3359    0.6517 F   0  0  0  0  0  0  0  0  0  0  0  0
   -7.9114   -1.3218    0.1938 F   0  0  0  0  0  0  0  0  0  0  0  0
   -0.4062   -1.0701   -1.1538 O   0  0  0  0  0  0  0  0  0  0  0  0
    1.3609    0.0290   -0.1129 N   0  0  0  0  0  0  0  0  0  0  0  0
    4.1280   -0.0016    0.1363 N   0  0  0  0  0  0  0  0  0  0  0  0
    4.3611    2.1058    0.6414 N   0  0  0  0  0  0  0  0  0  0  0  0
   -2.6709    2.4476   -1.2833 N   0  0  0  0  0  0  0  0  0  0  0  0
    5.6155    1.5254    0.5634 N   0  0  0  0  0  0  0  0  0  0  0  0
    2.0251   -1.2230    0.2815 C   0  0  0  0  0  0  0  0  0  0  0  0
    3.4713   -1.2427   -0.2010 C   0  0  0  0  0  0  0  0  0  0  0  0
    1.9894    1.2812    0.3525 C   0  0  0  0  0  0  0  0  0  0  0  0
    3.4705    1.1711    0.3794 C   0  0  0  0  0  0  0  0  0  0  0  0
   -0.5749    1.2894   -0.9884 C   0  0  0  0  0  0  0  0  0  0  0  0
   -2.0956    1.1309   -0.9778 C   0  0  1  0  0  0  0  0  0  0  0  0
    0.1250   -0.0281   -0.7623 C   0  0  0  0  0  0  0  0  0  0  0  0
   -2.6545    0.6579    0.3820 C   0  0  0  0  0  0  0  0  0  0  0  0
    5.4512    0.2566    0.2581 C   0  0  0  0  0  0  0  0  0  0  0  0
   -4.0653    0.1239    0.3302 C   0  0  0  0  0  0  0  0  0  0  0  0
    6.5059   -0.7532    0.0610 C   0  0  0  0  0  0  0  0  0  0  0  0
   -4.2758   -1.2259    0.0968 C   0  0  0  0  0  0  0  0  0  0  0  0
   -5.1261    0.9958    0.5179 C   0  0  0  0  0  0  0  0  0  0  0  0
   -6.4310    0.5052    0.4712 C   0  0  0  0  0  0  0  0  0  0  0  0
   -5.5807   -1.7165    0.0500 C   0  0  0  0  0  0  0  0  0  0  0  0
   -6.6583   -0.8509    0.2373 C   0  0  0  0  0  0  0  0  0  0  0  0
    1.9812   -1.2736    1.3766 H   0  0  0  0  0  0  0  0  0  0  0  0
    1.4893   -2.0943   -0.1079 H   0  0  0  0  0  0  0  0  0  0  0  0
    3.5184   -1.3357   -1.2917 H   0  0  0  0  0  0  0  0  0  0  0  0
    4.0149   -2.0741    0.2564 H   0  0  0  0  0  0  0  0  0  0  0  0
    1.7248    2.1100   -0.3094 H   0  0  0  0  0  0  0  0  0  0  0  0
    1.6046    1.4902    1.3560 H   0  0  0  0  0  0  0  0  0  0  0  0
   -0.2229    1.6876   -1.9477 H   0  0  0  0  0  0  0  0  0  0  0  0
   -0.3185    2.0072   -0.2035 H   0  0  0  0  0  0  0  0  0  0  0  0
   -2.4004    0.4333   -1.7673 H   0  0  0  0  0  0  0  0  0  0  0  0
   -2.0157   -0.1297    0.8018 H   0  0  0  0  0  0  0  0  0  0  0  0
   -2.5970    1.4674    1.1241 H   0  0  0  0  0  0  0  0  0  0  0  0
   -2.3845    3.1258   -0.5781 H   0  0  0  0  0  0  0  0  0  0  0  0
   -2.3011    2.7875   -2.1703 H   0  0  0  0  0  0  0  0  0  0  0  0
   -4.9617    2.0530    0.7041 H   0  0  0  0  0  0  0  0  0  0  0  0
   -5.7577   -2.7723   -0.1317 H   0  0  0  0  0  0  0  0  0  0  0  0
  1 23  1  0  0  0  0
  2 23  1  0  0  0  0
  3 23  1  0  0  0  0
  4 24  1  0  0  0  0
  5 26  1  0  0  0  0
  6 28  1  0  0  0  0
  7 19  2  0  0  0  0
  8 13  1  0  0  0  0
  8 15  1  0  0  0  0
  8 19  1  0  0  0  0
  9 14  1  0  0  0  0
  9 16  1  0  0  0  0
  9 21  1  0  0  0  0
 10 12  1  0  0  0  0
 10 16  2  0  0  0  0
 11 18  1  0  0  0  0
 11 40  1  0  0  0  0
 11 41  1  0  0  0  0
 12 21  2  0  0  0  0
 13 14  1  0  0  0  0
 13 29  1  0  0  0  0
 13 30  1  0  0  0  0
 14 31  1  0  0  0  0
 14 32  1  0  0  0  0
 15 16  1  0  0  0  0
 15 33  1  0  0  0  0
 15 34  1  0  0  0  0
 17 18  1  0  0  0  0
 17 19  1  0  0  0  0
 17 35  1  0  0  0  0
 17 36  1  0  0  0  0
 18 20  1  0  0  0  0
 18 37  1  0  0  0  0
 20 22  1  0  0  0  0
 20 38  1  0  0  0  0
 20 39  1  0  0  0  0
 21 23  1  0  0  0  0
 22 24  1  0  0  0  0
 22 25  2  0  0  0  0
 24 27  2  0  0  0  0
 25 26  1  0  0  0  0
 25 42  1  0  0  0  0
 26 28  2  0  0  0  0
 27 28  1  0  0  0  0
 27 43  1  0  0  0  0
M  END
> <PUBCHEM_COMPOUND_CID>
11306691

> <PUBCHEM_CONFORMER_RMSD>
1

> <PUBCHEM_CONFORMER_DIVERSEORDER>
4
119
217
16
334
370
68
536
177
448
270
366
100
405
531
80
538
306
442
211
592
426
356
33
199
224
76
11
446
43
56
318
234
116
395
321
2
66
117
499
544
507
555
200
332
15
132
260
46
359
197
590
36
347
412
74
39
145
264
298
71
98
24
420
343
312
73
5
67
485
47
140
193
285
167
562
579
283
13
377
445
304
267
40
72
208
1
251
457
455
45
557
373
194
63
152
229
9
480
553
50
136
171
174
22
189
258
305
106
355
191
413
186
94
44
329
236
42
82
92
122
10
55
526
491
58
62
69
206
91
128
49
23
84
489
93
170
90
3
589
292
48
34
53
316
576
301
25
417
32
18
26
613
269
275
52
29
493
143
246
54
123
585
59
19
113
486
290
276
397
6
27
386
348
225
577
474
103
422
214
300
368
20
77
127
311
14
7
31
604
228
12
346
147
436
250
51
380
582
254
459

> <PUBCHEM_MMFF94_PARTIAL_CHARGES>
32
1 -0.34
10 -0.34
11 -0.99
12 -0.34
13 0.3
14 0.26
15 0.48
16 0.01
17 0.06
18 0.27
19 0.57
2 -0.34
20 0.14
21 0.01
22 -0.14
23 1.2
24 0.19
25 -0.15
26 0.19
27 -0.15
28 0.19
3 -0.34
4 -0.19
40 0.36
41 0.36
42 0.15
43 0.15
5 -0.19
6 -0.19
7 -0.57
8 -0.66
9 0.05

> <PUBCHEM_EFFECTIVE_ROTOR_COUNT>
6.8

> <PUBCHEM_PHARMACOPHORE_FEATURES>
8
1 11 cation
1 11 donor
1 7 acceptor
3 9 10 16 cation
3 9 12 21 cation
5 9 10 12 16 21 rings
6 22 24 25 26 27 28 rings
6 8 9 13 14 15 16 rings

> <PUBCHEM_HEAVY_ATOM_COUNT>
28

> <PUBCHEM_ATOM_DEF_STEREO_COUNT>
0

> <PUBCHEM_ATOM_UDEF_STEREO_COUNT>
1

> <PUBCHEM_BOND_DEF_STEREO_COUNT>
0

> <PUBCHEM_BOND_UDEF_STEREO_COUNT>
0

> <PUBCHEM_ISOTOPIC_ATOM_COUNT>
0

> <PUBCHEM_COMPONENT_COUNT>
1

> <PUBCHEM_CACTVS_TAUTO_COUNT>
1

> <PUBCHEM_CONFORMER_ID>
00AC86C300000004

> <PUBCHEM_MMFF94_ENERGY>
41.0751

> <PUBCHEM_FEATURE_SELFOVERLAP>
43.165

> <PUBCHEM_SHAPE_FINGERPRINT>
10 15 17560799965558251544
10299344 5 18334860519372781386
11045977 3 18201155537822842585
11315181 36 18343024398221488513
11524674 6 17418092131049700167
11719270 70 17775287149281700750
12166972 35 18334297574152943804
12236239 1 18202001053231510321
12516196 113 18186801400727164461
12596602 18 18202002157117253185
12616971 3 17489297607955412468
13533116 47 17385714756227297730
13782708 43 18114457860683297202
14251764 18 18412545426706445951
14341114 176 18412265051220614816
14394314 77 18260549983962369921
14556957 393 15285647542579691782
14933364 13 18413672409045351896
15183329 4 18411139121385989378
15352257 5 18408603651951765570
15461852 350 17703784839502958093
15716309 27 18342737438165222279
18222031 100 16732980942629760508
18608769 82 18409164429199939046
2026 5 16372114509698168058
21150785 3 12540699223348400320
21267235 1 18343023268729439948
21315763 28 18342175592282114217
2132832 1 16370731417768278933
23035841 295 18260267447294819499
23522609 53 18044968751319870956
23559900 14 18270392923517648897
3009799 131 10737287948062006454
3383291 50 17822581624660681843
350125 39 18411136939795517772
4073 2 18188212129848515538
4325135 7 18410012143299598698
5104073 3 18338785724819471696
5385378 56 13254530742270882853
59682541 35 18334576888364887912
59755656 215 18334859398518666650
6081469 158 18261105275735362365
9996256 80 18410571790966618358

> <PUBCHEM_SHAPE_MULTIPOLES>
501.81
22.21
2.02
0.91
0.16
0.15
-0.18
-5.28
4.55
-0.31
-0.12
0.08
0.17
0.51

> <PUBCHEM_SHAPE_SELFOVERLAP>
1079.042

> <PUBCHEM_SHAPE_VOLUME>
278.9

> <PUBCHEM_COORDINATE_TYPE>
2
5
10

$$$$
