4488113
  -OEChem-09252021313D

 46 50  0     1  0  0  0  0  0999 V2000
   -1.0347    1.9841    0.2432 Cl  0  0  0  0  0  0  0  0  0  0  0  0
    3.1541    4.4743    0.3785 F   0  0  0  0  0  0  0  0  0  0  0  0
   -2.0617   -2.9085    0.0549 F   0  0  0  0  0  0  0  0  0  0  0  0
    2.9666   -3.0045   -0.0985 O   0  0  0  0  0  0  0  0  0  0  0  0
    5.3919   -2.2232    0.4993 O   0  0  0  0  0  0  0  0  0  0  0  0
    5.9620   -0.2838   -0.5702 O   0  0  0  0  0  0  0  0  0  0  0  0
   -2.7732   -0.2962    0.1911 N   0  0  3  0  0  0  0  0  0  0  0  0
   -4.8085    1.9132    1.0822 N   0  0  0  0  0  0  0  0  0  0  0  0
    1.9817    0.9463    0.1068 N   0  0  0  0  0  0  0  0  0  0  0  0
   -5.0119   -0.0055   -0.4236 C   0  0  0  0  0  0  0  0  0  0  0  0
   -6.1516    0.4374   -1.3120 C   0  0  0  0  0  0  0  0  0  0  0  0
   -6.1235   -0.9661   -0.7858 C   0  0  0  0  0  0  0  0  0  0  0  0
   -4.8759    0.4544    1.0045 C   0  0  1  0  0  0  0  0  0  0  0  0
   -3.6335   -0.2348   -0.9921 C   0  0  0  0  0  0  0  0  0  0  0  0
   -3.5330   -0.1589    1.4352 C   0  0  0  0  0  0  0  0  0  0  0  0
   -1.4322   -0.6201    0.1377 C   0  0  0  0  0  0  0  0  0  0  0  0
    1.8301    2.4193    0.1779 C   0  0  1  0  0  0  0  0  0  0  0  0
    2.9025    3.3178   -0.3375 C   0  0  1  0  0  0  0  0  0  0  0  0
    1.5887    3.2204   -1.0560 C   0  0  0  0  0  0  0  0  0  0  0  0
   -0.4267    0.3506    0.1516 C   0  0  0  0  0  0  0  0  0  0  0  0
    0.9288   -0.0127    0.0951 C   0  0  0  0  0  0  0  0  0  0  0  0
   -1.1032   -1.9709    0.0673 C   0  0  0  0  0  0  0  0  0  0  0  0
    1.2411   -1.3875    0.0243 C   0  0  0  0  0  0  0  0  0  0  0  0
    0.2328   -2.3593    0.0105 C   0  0  0  0  0  0  0  0  0  0  0  0
    3.2940    0.5190    0.0488 C   0  0  0  0  0  0  0  0  0  0  0  0
    2.6623   -1.8198   -0.0369 C   0  0  0  0  0  0  0  0  0  0  0  0
    3.6980   -0.7555   -0.0202 C   0  0  0  0  0  0  0  0  0  0  0  0
    5.1351   -1.0295   -0.0760 C   0  0  0  0  0  0  0  0  0  0  0  0
   -6.9023    1.1048   -0.9070 H   0  0  0  0  0  0  0  0  0  0  0  0
   -5.9515    0.5835   -2.3667 H   0  0  0  0  0  0  0  0  0  0  0  0
   -5.9162   -1.7615   -1.4917 H   0  0  0  0  0  0  0  0  0  0  0  0
   -6.8500   -1.2308   -0.0268 H   0  0  0  0  0  0  0  0  0  0  0  0
   -5.6850    0.1016    1.6522 H   0  0  0  0  0  0  0  0  0  0  0  0
   -3.5790   -1.1666   -1.5654 H   0  0  0  0  0  0  0  0  0  0  0  0
   -3.3351    0.6008   -1.6345 H   0  0  0  0  0  0  0  0  0  0  0  0
   -3.0105    0.4474    2.1839 H   0  0  0  0  0  0  0  0  0  0  0  0
   -3.6992   -1.1549    1.8638 H   0  0  0  0  0  0  0  0  0  0  0  0
   -5.6661    2.3225    0.7158 H   0  0  0  0  0  0  0  0  0  0  0  0
   -4.0456    2.2619    0.5035 H   0  0  0  0  0  0  0  0  0  0  0  0
    1.4178    2.7434    1.1286 H   0  0  0  0  0  0  0  0  0  0  0  0
    3.7724    3.0295   -0.9043 H   0  0  0  0  0  0  0  0  0  0  0  0
    1.5733    2.7080   -2.0102 H   0  0  0  0  0  0  0  0  0  0  0  0
    0.9271    4.0756   -0.9956 H   0  0  0  0  0  0  0  0  0  0  0  0
    0.4687   -3.4183   -0.0437 H   0  0  0  0  0  0  0  0  0  0  0  0
    4.0520    1.2867    0.1329 H   0  0  0  0  0  0  0  0  0  0  0  0
    6.3477   -2.4431    0.4813 H   0  0  0  0  0  0  0  0  0  0  0  0
  1 20  1  0  0  0  0
  2 18  1  0  0  0  0
  3 22  1  0  0  0  0
  4 26  2  0  0  0  0
  5 28  1  0  0  0  0
  5 46  1  0  0  0  0
  6 28  2  0  0  0  0
  7 14  1  0  0  0  0
  7 15  1  0  0  0  0
  7 16  1  0  0  0  0
  8 13  1  0  0  0  0
  8 38  1  0  0  0  0
  8 39  1  0  0  0  0
  9 17  1  0  0  0  0
  9 21  1  0  0  0  0
  9 25  1  0  0  0  0
 10 11  1  0  0  0  0
 10 12  1  0  0  0  0
 10 13  1  0  0  0  0
 10 14  1  0  0  0  0
 11 12  1  0  0  0  0
 11 29  1  0  0  0  0
 11 30  1  0  0  0  0
 12 31  1  0  0  0  0
 12 32  1  0  0  0  0
 13 15  1  0  0  0  0
 13 33  1  0  0  0  0
 14 34  1  0  0  0  0
 14 35  1  0  0  0  0
 15 36  1  0  0  0  0
 15 37  1  0  0  0  0
 16 20  1  0  0  0  0
 16 22  2  0  0  0  0
 17 18  1  0  0  0  0
 17 19  1  0  0  0  0
 17 40  1  0  0  0  0
 18 19  1  0  0  0  0
 18 41  1  0  0  0  0
 19 42  1  0  0  0  0
 19 43  1  0  0  0  0
 20 21  2  0  0  0  0
 21 23  1  0  0  0  0
 22 24  1  0  0  0  0
 23 24  2  0  0  0  0
 23 26  1  0  0  0  0
 24 44  1  0  0  0  0
 25 27  2  0  0  0  0
 25 45  1  0  0  0  0
 26 27  1  0  0  0  0
 27 28  1  0  0  0  0
M  END
> <PUBCHEM_COMPOUND_CID>
4488113

> <PUBCHEM_CONFORMER_RMSD>
0.8

> <PUBCHEM_CONFORMER_DIVERSEORDER>
1
8
6
3
5
9
10
7
2
4

> <PUBCHEM_MMFF94_PARTIAL_CHARGES>
41
1 -0.18
10 -0.19
11 -0.2
12 -0.2
13 0.37
14 0.46
15 0.37
16 0.1
17 0.07
18 0.13
19 -0.2
2 -0.23
20 0.18
21 0.1
22 0.19
23 0.09
24 -0.15
25 -0.05
26 0.47
27 0.03
28 0.71
29 0.1
3 -0.19
30 0.1
31 0.1
32 0.1
38 0.36
39 0.36
4 -0.57
40 0.1
41 0.1
42 0.1
43 0.1
44 0.15
45 0.15
46 0.5
5 -0.65
6 -0.57
7 -0.84
8 -0.99
9 -0.37

> <PUBCHEM_EFFECTIVE_ROTOR_COUNT>
4.8

> <PUBCHEM_PHARMACOPHORE_FEATURES>
12
1 27 anion
1 4 acceptor
1 5 acceptor
1 6 acceptor
1 7 cation
1 8 cation
1 8 donor
1 9 cation
3 5 6 28 anion
5 7 10 13 14 15 rings
6 16 20 21 22 23 24 rings
6 9 21 23 25 26 27 rings

> <PUBCHEM_HEAVY_ATOM_COUNT>
28

> <PUBCHEM_ATOM_DEF_STEREO_COUNT>
0

> <PUBCHEM_ATOM_UDEF_STEREO_COUNT>
3

> <PUBCHEM_BOND_DEF_STEREO_COUNT>
0

> <PUBCHEM_BOND_UDEF_STEREO_COUNT>
0

> <PUBCHEM_ISOTOPIC_ATOM_COUNT>
0

> <PUBCHEM_COMPONENT_COUNT>
1

> <PUBCHEM_CACTVS_TAUTO_COUNT>
1

> <PUBCHEM_CONFORMER_ID>
00447BB100000001

> <PUBCHEM_MMFF94_ENERGY>
112.8611

> <PUBCHEM_FEATURE_SELFOVERLAP>
61.316

> <PUBCHEM_SHAPE_FINGERPRINT>
10050765 1 18194117649339535654
10074138 170 15447733943422375179
10411042 1 18122059806573585462
10688039 33 17895757288330905708
10763959 59 18113894949163087917
10906281 52 18268730358340128326
1100329 8 18410295843475856098
11421498 54 12107780783540182750
11545043 162 17023197036865359073
12011746 2 18408887317493555782
12166972 35 18273493472596908625
12236239 1 17775002358394843947
12403260 363 18341894087035183473
12553582 1 18409162182832037394
12616971 3 18130238107568343201
12838862 33 18337939169970422300
13140716 1 18265623250048839634
13533116 47 18200590423385420785
13583140 156 17749392572595336235
13590594 115 18336551503864239136
13862211 1 18339077095168807610
14068700 675 18201998798769708968
14170010 4 18411414029346933448
14790565 3 18338529533972451088
14849402 71 18337681896180162201
15081414 286 18340496547389419582
15099037 51 18410013225647454439
15475509 8 17985570887134728028
15927050 60 17980483687667655542
1601671 61 18410578357929519758
16087824 20 18193561060227697229
17349148 13 18060142028967433355
18681886 176 18272643562940928298
20028762 73 18202278091465378439
20612939 158 18410292540582740917
21033648 144 18263635328709683261
21033648 29 17313651725045550869
21033650 10 15840457871686996747
21267235 1 18341337725245310367
21641784 216 17824563893484747180
21709351 56 18340483383694368269
21792961 116 17968380027546746278
21859007 373 17823672249078001245
221357 26 18334849481549664605
22182313 1 18041820892468424980
22311459 1 18410856534181663882
23402539 116 18272366417454632615
23557571 272 13901914397255372779
23558518 356 17754738552284337698
23559900 14 18340199786497268242
23569943 247 17842005381464086886
23576562 1 18262523726569608342
24771293 8 18272928320021694032
24771750 20 17972898113681731308
3178227 256 18334868199091091139
335352 9 18410293623146536854
350125 39 18410016502692131696
3633792 109 18411689986040021637
4015057 19 18408605890093626137
474 4 18410571829473501035
5104073 3 18262801898784968507
67856867 119 18271803553632782849
9981440 41 17689712382661648024

> <PUBCHEM_SHAPE_MULTIPOLES>
531
12.87
3.77
0.95
8.04
2.92
-0.02
-1.55
1.69
-4.98
0.08
1.18
0.23
-0.6

> <PUBCHEM_SHAPE_SELFOVERLAP>
1161.346

> <PUBCHEM_SHAPE_VOLUME>
290.8

> <PUBCHEM_COORDINATE_TYPE>
2
5
10

$$$$
