4687521
  -OEChem-09252021323D

 48 53  0     1  0  0  0  0  0999 V2000
    3.0170    2.6159   -1.0556 O   0  0  0  0  0  0  0  0  0  0  0  0
   -1.4725    2.8003    1.6919 O   0  0  0  0  0  0  0  0  0  0  0  0
   -4.1896   -0.5585   -1.9319 O   0  0  0  0  0  0  0  0  0  0  0  0
   -5.3114   -1.8458   -0.2313 O   0  0  0  0  0  0  0  0  0  0  0  0
   -0.0237    1.6108    0.2882 N   0  0  0  0  0  0  0  0  0  0  0  0
    1.3249   -1.6287    1.4097 N   0  0  0  0  0  0  0  0  0  0  0  0
    1.3604    3.8682    0.0059 N   0  0  0  0  0  0  0  0  0  0  0  0
    0.7588    1.7256   -0.9758 C   0  0  2  0  0  0  0  0  0  0  0  0
   -0.2593    0.3065    0.9649 C   0  0  2  0  0  0  0  0  0  0  0  0
    1.3027    0.4144   -1.5852 C   0  0  0  0  0  0  0  0  0  0  0  0
    0.8528   -0.6191    0.6204 C   0  0  0  0  0  0  0  0  0  0  0  0
    1.5977   -0.5856   -0.5339 C   0  0  0  0  0  0  0  0  0  0  0  0
    1.8592    2.7423   -0.6637 C   0  0  0  0  0  0  0  0  0  0  0  0
    2.5636   -1.6237   -0.4571 C   0  0  0  0  0  0  0  0  0  0  0  0
   -0.5935    2.7729    0.8331 C   0  0  0  0  0  0  0  0  0  0  0  0
   -1.6270   -0.2908    0.6756 C   0  0  0  0  0  0  0  0  0  0  0  0
   -0.0783    4.0380    0.1847 C   0  0  0  0  0  0  0  0  0  0  0  0
    2.3710   -2.2632    0.7731 C   0  0  0  0  0  0  0  0  0  0  0  0
    3.5852   -2.0886   -1.3091 C   0  0  0  0  0  0  0  0  0  0  0  0
   -2.2182   -0.0877   -0.5713 C   0  0  0  0  0  0  0  0  0  0  0  0
   -2.2778   -1.0400    1.6686 C   0  0  0  0  0  0  0  0  0  0  0  0
    3.1544   -3.3452    1.1903 C   0  0  0  0  0  0  0  0  0  0  0  0
    2.2236    4.9901    0.3342 C   0  0  0  0  0  0  0  0  0  0  0  0
   -3.4599   -0.6492   -0.7866 C   0  0  0  0  0  0  0  0  0  0  0  0
    4.3751   -3.1701   -0.9031 C   0  0  0  0  0  0  0  0  0  0  0  0
   -3.5350   -1.5981    1.4246 C   0  0  0  0  0  0  0  0  0  0  0  0
    4.1614   -3.7871    0.3277 C   0  0  0  0  0  0  0  0  0  0  0  0
   -4.1007   -1.3843    0.1845 C   0  0  0  0  0  0  0  0  0  0  0  0
   -5.3610   -1.3194   -1.5730 C   0  0  0  0  0  0  0  0  0  0  0  0
    0.1125    2.1989   -1.7275 H   0  0  0  0  0  0  0  0  0  0  0  0
   -0.2164    0.5284    2.0406 H   0  0  0  0  0  0  0  0  0  0  0  0
    2.1786    0.5950   -2.2174 H   0  0  0  0  0  0  0  0  0  0  0  0
    0.5329   -0.0135   -2.2407 H   0  0  0  0  0  0  0  0  0  0  0  0
    0.9651   -1.8769    2.3212 H   0  0  0  0  0  0  0  0  0  0  0  0
   -0.5594    4.2001   -0.7840 H   0  0  0  0  0  0  0  0  0  0  0  0
   -0.2703    4.8856    0.8495 H   0  0  0  0  0  0  0  0  0  0  0  0
   -1.7455    0.4809   -1.3620 H   0  0  0  0  0  0  0  0  0  0  0  0
    3.7642   -1.6182   -2.2716 H   0  0  0  0  0  0  0  0  0  0  0  0
   -1.8101   -1.1948    2.6377 H   0  0  0  0  0  0  0  0  0  0  0  0
    2.9893   -3.8271    2.1482 H   0  0  0  0  0  0  0  0  0  0  0  0
    1.9644    5.8321   -0.3139 H   0  0  0  0  0  0  0  0  0  0  0  0
    3.2761    4.7352    0.1862 H   0  0  0  0  0  0  0  0  0  0  0  0
    2.0649    5.2656    1.3805 H   0  0  0  0  0  0  0  0  0  0  0  0
    5.1643   -3.5319   -1.5568 H   0  0  0  0  0  0  0  0  0  0  0  0
   -4.0429   -2.1777    2.1869 H   0  0  0  0  0  0  0  0  0  0  0  0
    4.7870   -4.6256    0.6229 H   0  0  0  0  0  0  0  0  0  0  0  0
   -5.4649   -2.1553   -2.2743 H   0  0  0  0  0  0  0  0  0  0  0  0
   -6.2411   -0.6723   -1.6638 H   0  0  0  0  0  0  0  0  0  0  0  0
  1 13  2  0  0  0  0
  2 15  2  0  0  0  0
  3 24  1  0  0  0  0
  3 29  1  0  0  0  0
  4 28  1  0  0  0  0
  4 29  1  0  0  0  0
  5  8  1  0  0  0  0
  5  9  1  0  0  0  0
  5 15  1  0  0  0  0
  6 11  1  0  0  0  0
  6 18  1  0  0  0  0
  6 34  1  0  0  0  0
  7 13  1  0  0  0  0
  7 17  1  0  0  0  0
  7 23  1  0  0  0  0
  8 10  1  0  0  0  0
  8 13  1  0  0  0  0
  8 30  1  0  0  0  0
  9 11  1  0  0  0  0
  9 16  1  0  0  0  0
  9 31  1  0  0  0  0
 10 12  1  0  0  0  0
 10 32  1  0  0  0  0
 10 33  1  0  0  0  0
 11 12  2  0  0  0  0
 12 14  1  0  0  0  0
 14 18  1  0  0  0  0
 14 19  2  0  0  0  0
 15 17  1  0  0  0  0
 16 20  2  0  0  0  0
 16 21  1  0  0  0  0
 17 35  1  0  0  0  0
 17 36  1  0  0  0  0
 18 22  2  0  0  0  0
 19 25  1  0  0  0  0
 19 38  1  0  0  0  0
 20 24  1  0  0  0  0
 20 37  1  0  0  0  0
 21 26  2  0  0  0  0
 21 39  1  0  0  0  0
 22 27  1  0  0  0  0
 22 40  1  0  0  0  0
 23 41  1  0  0  0  0
 23 42  1  0  0  0  0
 23 43  1  0  0  0  0
 24 28  2  0  0  0  0
 25 27  2  0  0  0  0
 25 44  1  0  0  0  0
 26 28  1  0  0  0  0
 26 45  1  0  0  0  0
 27 46  1  0  0  0  0
 29 47  1  0  0  0  0
 29 48  1  0  0  0  0
M  END
> <PUBCHEM_COMPOUND_CID>
4687521

> <PUBCHEM_CONFORMER_RMSD>
0.6

> <PUBCHEM_CONFORMER_DIVERSEORDER>
1
18
7
14
17
9
3
11
13
8
16
12
5
4
2
10
19
20
15
6

> <PUBCHEM_MMFF94_PARTIAL_CHARGES>
36
1 -0.57
10 0.18
11 -0.33
12 -0.18
13 0.57
15 0.57
16 -0.14
17 0.36
18 -0.15
19 -0.15
2 -0.57
20 -0.15
21 -0.15
22 -0.15
23 0.3
24 0.08
25 -0.15
26 -0.15
27 -0.15
28 0.08
29 0.56
3 -0.36
34 0.27
37 0.15
38 0.15
39 0.15
4 -0.36
40 0.15
44 0.15
45 0.15
46 0.15
5 -0.66
6 0.03
7 -0.66
8 0.36
9 0.62

> <PUBCHEM_EFFECTIVE_ROTOR_COUNT>
2.4

> <PUBCHEM_PHARMACOPHORE_FEATURES>
12
1 1 acceptor
1 2 acceptor
1 3 acceptor
1 4 acceptor
1 6 cation
1 6 donor
5 3 4 24 28 29 rings
5 6 11 12 14 18 rings
6 14 18 19 22 25 27 rings
6 16 20 21 24 26 28 rings
6 5 7 8 13 15 17 rings
6 5 8 9 10 11 12 rings

> <PUBCHEM_HEAVY_ATOM_COUNT>
29

> <PUBCHEM_ATOM_DEF_STEREO_COUNT>
0

> <PUBCHEM_ATOM_UDEF_STEREO_COUNT>
2

> <PUBCHEM_BOND_DEF_STEREO_COUNT>
0

> <PUBCHEM_BOND_UDEF_STEREO_COUNT>
0

> <PUBCHEM_ISOTOPIC_ATOM_COUNT>
0

> <PUBCHEM_COMPONENT_COUNT>
1

> <PUBCHEM_CACTVS_TAUTO_COUNT>
1

> <PUBCHEM_CONFORMER_ID>
004786A100000001

> <PUBCHEM_MMFF94_ENERGY>
86.6662

> <PUBCHEM_FEATURE_SELFOVERLAP>
61.283

> <PUBCHEM_SHAPE_FINGERPRINT>
10764073 3 16956140012757267712
1100329 8 18120381955945121257
11049842 53 14707744261691746563
11101153 10 18337117761954841006
11115154 58 18265884784151713021
11552529 35 17769655300437169882
11578080 2 17632004278554591817
11720765 8 18266720455580059477
11763715 3 18194420908975590302
12160290 23 17395874063252674180
12363563 72 18339923719022195783
12553582 1 18263373494502905155
12730499 353 18047192140404063763
12788726 201 17758110402185042171
13004483 165 18268697321161706150
13009979 54 17846513503865079947
13134695 92 18409449184782902743
13140716 1 17907313387488112264
13681431 1 18411694409149207825
13757389 114 17549561616861643108
13911987 19 17830198022598319356
13955234 65 18267025149070597619
14508225 48 18339634521503733135
15131766 46 15364804687999662214
15219462 58 17902545841025186315
15876981 60 18047772403386545318
16992727 255 17464524305253533221
17539 30 18051687746332294909
17980427 26 17764072233588665921
1813 80 18201723911908943879
18915476 22 18191872447064686931
20101258 96 18194701271365828122
20600515 1 17466182441654962808
21120745 212 18195817262988866500
21452121 199 18412540994384488666
23419403 2 17173160535695024052
23559900 14 18335972138930577075
238 59 18050843618261250031
255183 313 17551519842728175345
3383291 50 18195254545517898240
4017518 198 15888253268490701811
4058900 60 17976837693413613421
463206 1 18408598150505698915
5265222 85 16034393774422896678
57527295 17 18337965570707038909
5969126 39 18267300924974392198
6004065 56 18336251431610610546
613672 6 18337944597918450499
6669772 16 17909272721604263132
70251023 43 18411423890845384051
7471813 234 18412544288519098046
81228 2 18049432648036409241
9925002 15 18122920736846498284

> <PUBCHEM_SHAPE_MULTIPOLES>
558.39
8.42
5.9
1.59
5.65
7.86
0.09
-11.69
2.81
-5.61
-0.89
0.75
-0.48
-1.01

> <PUBCHEM_SHAPE_SELFOVERLAP>
1268.283

> <PUBCHEM_SHAPE_VOLUME>
289.6

> <PUBCHEM_COORDINATE_TYPE>
2
5
10

$$$$
