60918
  -OEChem-09252021323D

 45 46  0     0  0  0  0  0  0999 V2000
    0.9098   -3.1183   -0.5104 O   0  0  0  0  0  0  0  0  0  0  0  0
    4.5283    0.9184    0.3092 N   0  0  0  0  0  0  0  0  0  0  0  0
   -2.6568    1.3697   -0.2721 N   0  0  0  0  0  0  0  0  0  0  0  0
   -0.9020    2.8852    0.0706 N   0  0  0  0  0  0  0  0  0  0  0  0
    0.0819    1.9552    0.0421 N   0  0  0  0  0  0  0  0  0  0  0  0
   -3.0204    3.7253   -0.0097 N   0  0  0  0  0  0  0  0  0  0  0  0
   -3.9483   -1.2045    0.4629 C   0  0  0  0  0  0  0  0  0  0  0  0
   -4.3954   -0.2998   -0.6890 C   0  0  0  0  0  0  0  0  0  0  0  0
   -4.3112   -2.6651    0.1932 C   0  0  0  0  0  0  0  0  0  0  0  0
    2.4459    0.1674    0.0312 C   0  0  0  0  0  0  0  0  0  0  0  0
    3.7853   -0.2219    0.1017 C   0  0  0  0  0  0  0  0  0  0  0  0
   -4.0991    1.1720   -0.4235 C   0  0  0  0  0  0  0  0  0  0  0  0
    2.4267    1.5682    0.2031 C   0  0  0  0  0  0  0  0  0  0  0  0
    1.4630   -0.8201   -0.1783 C   0  0  0  0  0  0  0  0  0  0  0  0
    3.7069    2.0121    0.3721 C   0  0  0  0  0  0  0  0  0  0  0  0
   -3.8429   -3.5726    1.3195 C   0  0  0  0  0  0  0  0  0  0  0  0
    4.1923   -1.5545   -0.0273 C   0  0  0  0  0  0  0  0  0  0  0  0
    1.8554   -2.1572   -0.3092 C   0  0  0  0  0  0  0  0  0  0  0  0
    3.1997   -2.5165   -0.2346 C   0  0  0  0  0  0  0  0  0  0  0  0
    1.2663    2.4442    0.2080 C   0  0  0  0  0  0  0  0  0  0  0  0
   -2.2460    2.5863   -0.0843 C   0  0  0  0  0  0  0  0  0  0  0  0
   -0.4393   -2.6734   -0.5750 C   0  0  0  0  0  0  0  0  0  0  0  0
   -4.4272   -0.8759    1.3934 H   0  0  0  0  0  0  0  0  0  0  0  0
   -2.8668   -1.1175    0.6112 H   0  0  0  0  0  0  0  0  0  0  0  0
   -5.4730   -0.4199   -0.8532 H   0  0  0  0  0  0  0  0  0  0  0  0
   -3.8911   -0.6132   -1.6116 H   0  0  0  0  0  0  0  0  0  0  0  0
   -5.3966   -2.7646    0.0773 H   0  0  0  0  0  0  0  0  0  0  0  0
   -3.8527   -2.9947   -0.7464 H   0  0  0  0  0  0  0  0  0  0  0  0
   -4.6274    1.4896    0.4837 H   0  0  0  0  0  0  0  0  0  0  0  0
   -4.4776    1.7568   -1.2705 H   0  0  0  0  0  0  0  0  0  0  0  0
    5.5344    0.9437    0.4016 H   0  0  0  0  0  0  0  0  0  0  0  0
    0.4318   -0.4995   -0.2292 H   0  0  0  0  0  0  0  0  0  0  0  0
    4.1190    2.9991    0.5311 H   0  0  0  0  0  0  0  0  0  0  0  0
   -4.1068   -4.6125    1.1026 H   0  0  0  0  0  0  0  0  0  0  0  0
   -4.3134   -3.2938    2.2678 H   0  0  0  0  0  0  0  0  0  0  0  0
   -2.7575   -3.5176    1.4467 H   0  0  0  0  0  0  0  0  0  0  0  0
    5.2386   -1.8352    0.0308 H   0  0  0  0  0  0  0  0  0  0  0  0
    3.4887   -3.5599   -0.3379 H   0  0  0  0  0  0  0  0  0  0  0  0
    1.4525    3.5237    0.3587 H   0  0  0  0  0  0  0  0  0  0  0  0
   -0.6422    3.8577    0.2151 H   0  0  0  0  0  0  0  0  0  0  0  0
   -1.0629   -3.5582   -0.7407 H   0  0  0  0  0  0  0  0  0  0  0  0
   -0.6103   -2.0054   -1.4264 H   0  0  0  0  0  0  0  0  0  0  0  0
   -0.7617   -2.2344    0.3746 H   0  0  0  0  0  0  0  0  0  0  0  0
   -2.5997    4.6360    0.1405 H   0  0  0  0  0  0  0  0  0  0  0  0
   -4.0299    3.7000   -0.0984 H   0  0  0  0  0  0  0  0  0  0  0  0
  1 18  1  0  0  0  0
  1 22  1  0  0  0  0
  2 11  1  0  0  0  0
  2 15  1  0  0  0  0
  2 31  1  0  0  0  0
  3 12  1  0  0  0  0
  3 21  2  0  0  0  0
  4  5  1  0  0  0  0
  4 21  1  0  0  0  0
  4 40  1  0  0  0  0
  5 20  2  3  0  0  0
  6 21  1  0  0  0  0
  6 44  1  0  0  0  0
  6 45  1  0  0  0  0
  7  8  1  0  0  0  0
  7  9  1  0  0  0  0
  7 23  1  0  0  0  0
  7 24  1  0  0  0  0
  8 12  1  0  0  0  0
  8 25  1  0  0  0  0
  8 26  1  0  0  0  0
  9 16  1  0  0  0  0
  9 27  1  0  0  0  0
  9 28  1  0  0  0  0
 10 11  2  0  0  0  0
 10 13  1  0  0  0  0
 10 14  1  0  0  0  0
 11 17  1  0  0  0  0
 12 29  1  0  0  0  0
 12 30  1  0  0  0  0
 13 15  2  0  0  0  0
 13 20  1  0  0  0  0
 14 18  2  0  0  0  0
 14 32  1  0  0  0  0
 15 33  1  0  0  0  0
 16 34  1  0  0  0  0
 16 35  1  0  0  0  0
 16 36  1  0  0  0  0
 17 19  2  0  0  0  0
 17 37  1  0  0  0  0
 18 19  1  0  0  0  0
 19 38  1  0  0  0  0
 20 39  1  0  0  0  0
 22 41  1  0  0  0  0
 22 42  1  0  0  0  0
 22 43  1  0  0  0  0
M  END
> <PUBCHEM_COMPOUND_CID>
60918

> <PUBCHEM_CONFORMER_RMSD>
0.8

> <PUBCHEM_CONFORMER_DIVERSEORDER>
1
174
114
297
246
215
431
315
340
192
316
320
270
345
285
233
367
374
96
59
166
3
227
331
26
195
412
257
162
123
255
443
282
165
199
74
308
421
49
176
274
318
243
35
254
53
272
434
178
55
206
398
247
21
368
167
101
384
189
306
153
383
209
8
71
177
88
294
89
293
433
322
244
12
132
72
241
147
160
6
10
258
332
248
2
97
406
20
87
276
388
380
73
113
224
31
13
430
62
439
414
110
228
291
84
18
108
403
14
38
363
296
149
355
379
99
141
324
260
249
298
302
41
29
202
413
289
225
91
219
150
198
52
364
124
336
444
131
268
16
92
330
236
161
310
230
34
281
60
317
395
416
48
404
442
32
309
237
349
146
319
103
193
369
213
217
278
50
190
23
256
373
301
64
210
334
5
381
218
112
360
242
201
130
143
120
19
133
159
22
284
9
139
142
337
343
93
327
145
204
400
68
205
105
33
155
144
118
287
211
197
30
231
253
426
25
129
126
182
239
350
277
70
303
427
290
250
95
307
222
86
117
44
341
338
121
405
102
252
393
372
264
85
28
134
333
223
314
389
122
37
69
292
17
79
56
115
187
376
157
7
43
305
82
408
179
411
127
435
77
116
200
354
61
286
226
137
269
15
275
183
65
172
208
399
423
392
163
58
24
425
267
402
76
361
152
45
429
377
347
175
170
326
39
351
397
106
185
346
111
125
46
407
81
441
240
94
436
261
299
42
107
356
164
262
11
263
186
119
232
325
401
54
154
212
136
375
63
75
273
265
100
135
415
51
180
365
214
158
288
169
335
409
358
437
90
47
235
188
4
140
98
83
348
220
245
238
313
280
321
357
420
40
312
352
362
339
342
196
203
418
440
279
138
221
234
266
80
128
184
295
329
424
168
394
391
259
207
251
216
386
66
344
78
191
148
371
173
171
67
385
181
57
370
311
104
387
396
109
229
359
417
432
27
382
419
353
156
283
36
422
328
378
438
390
300
428
151
410
194
323
366
304
271

> <PUBCHEM_MMFF94_PARTIAL_CHARGES>
26
1 -0.36
11 -0.15
12 0.25
13 -0.09
14 -0.15
15 -0.3
17 -0.15
18 0.08
19 -0.15
2 0.03
20 0.48
21 0.55
22 0.28
3 -0.7
31 0.27
32 0.15
33 0.15
37 0.15
38 0.15
39 0.06
4 -0.41
40 0.4
44 0.4
45 0.4
5 -0.49
6 -0.85

> <PUBCHEM_EFFECTIVE_ROTOR_COUNT>
8

> <PUBCHEM_PHARMACOPHORE_FEATURES>
10
1 1 acceptor
1 16 hydrophobe
1 2 cation
1 2 donor
1 4 donor
1 5 acceptor
1 6 donor
4 3 4 6 21 cation
5 2 10 11 13 15 rings
6 10 11 14 17 18 19 rings

> <PUBCHEM_HEAVY_ATOM_COUNT>
22

> <PUBCHEM_ATOM_DEF_STEREO_COUNT>
0

> <PUBCHEM_ATOM_UDEF_STEREO_COUNT>
0

> <PUBCHEM_BOND_DEF_STEREO_COUNT>
0

> <PUBCHEM_BOND_UDEF_STEREO_COUNT>
1

> <PUBCHEM_ISOTOPIC_ATOM_COUNT>
0

> <PUBCHEM_COMPONENT_COUNT>
1

> <PUBCHEM_CACTVS_TAUTO_COUNT>
6

> <PUBCHEM_CONFORMER_ID>
0000EDF600000001

> <PUBCHEM_MMFF94_ENERGY>
45.1259

> <PUBCHEM_FEATURE_SELFOVERLAP>
50.893

> <PUBCHEM_SHAPE_FINGERPRINT>
10616163 171 18411981334555636933
1100329 8 17617657661687925475
12038231 1 17258779214102682039
12293681 4 18042971076141263514
12633257 1 17905321823742264697
13140716 1 18268137661806978128
13402501 40 18337107973228475099
13989917 61 17472141052160720827
14363568 33 17398129617115838937
14790565 3 17544761587113242196
15196674 1 18268707221346147028
15352361 1 18337670923113006273
19591789 44 18413105039881592116
21673915 165 18413103952849028524
221490 88 18340488868193401732
23559900 14 18339633430746271880
3882209 13 15015958987664707797
445580 102 18412830209150969879
463206 1 18339083683532536785
5104073 3 18270955731246617264
5309563 4 18122627416882442979
6433294 58 18267584611273177923
9709674 26 18339361855626447813

> <PUBCHEM_SHAPE_MULTIPOLES>
421.98
10.07
5.06
0.77
4.34
0.17
-0.08
-2.81
-0.85
3.35
-0.35
0.44
-0.36
1.61

> <PUBCHEM_SHAPE_SELFOVERLAP>
875.619

> <PUBCHEM_SHAPE_VOLUME>
241.3

> <PUBCHEM_COORDINATE_TYPE>
2
5
10

$$$$
