137274711
  -OEChem-09252021323D

 20 21  0     0  0  0  0  0  0999 V2000
   -2.7735    1.6561   -0.0018 O   0  0  0  0  0  0  0  0  0  0  0  0
    2.8314   -1.7086   -0.0100 O   0  0  0  0  0  0  0  0  0  0  0  0
    0.2393    1.9313   -0.0014 N   0  0  0  0  0  0  0  0  0  0  0  0
   -2.3755   -0.6429    0.0003 N   0  0  0  0  0  0  0  0  0  0  0  0
    1.5535    1.6088   -0.0004 N   0  0  0  0  0  0  0  0  0  0  0  0
   -0.2242   -1.5338    0.0026 N   0  0  0  0  0  0  0  0  0  0  0  0
   -1.4739   -1.7089    0.0025 N   0  0  0  0  0  0  0  0  0  0  0  0
    3.9866    0.2723    0.0034 N   0  0  0  0  0  0  0  0  0  0  0  0
   -0.5787    0.8434   -0.0006 C   0  0  0  0  0  0  0  0  0  0  0  0
    0.2496   -0.2313    0.0014 C   0  0  0  0  0  0  0  0  0  0  0  0
    1.5502    0.2677    0.0014 C   0  0  0  0  0  0  0  0  0  0  0  0
   -1.9939    0.7079   -0.0014 C   0  0  0  0  0  0  0  0  0  0  0  0
   -3.7795   -1.0069    0.0001 C   0  0  0  0  0  0  0  0  0  0  0  0
    2.7886   -0.4551    0.0038 C   0  0  0  0  0  0  0  0  0  0  0  0
   -0.0159    2.9113   -0.0029 H   0  0  0  0  0  0  0  0  0  0  0  0
   -3.9859   -1.6055   -0.8919 H   0  0  0  0  0  0  0  0  0  0  0  0
   -4.4265   -0.1262   -0.0025 H   0  0  0  0  0  0  0  0  0  0  0  0
   -3.9873   -1.6012    0.8947 H   0  0  0  0  0  0  0  0  0  0  0  0
    3.9993    1.2872    0.0071 H   0  0  0  0  0  0  0  0  0  0  0  0
    4.8839   -0.2012   -0.0011 H   0  0  0  0  0  0  0  0  0  0  0  0
  1 12  2  0  0  0  0
  2 14  2  0  0  0  0
  3  5  1  0  0  0  0
  3  9  1  0  0  0  0
  3 15  1  0  0  0  0
  4  7  1  0  0  0  0
  4 12  1  0  0  0  0
  4 13  1  0  0  0  0
  5 11  2  0  0  0  0
  6  7  2  0  0  0  0
  6 10  1  0  0  0  0
  8 14  1  0  0  0  0
  8 19  1  0  0  0  0
  8 20  1  0  0  0  0
  9 10  2  0  0  0  0
  9 12  1  0  0  0  0
 10 11  1  0  0  0  0
 11 14  1  0  0  0  0
 13 16  1  0  0  0  0
 13 17  1  0  0  0  0
 13 18  1  0  0  0  0
M  END
> <PUBCHEM_COMPOUND_CID>
137274711

> <PUBCHEM_CONFORMER_RMSD>
0.4

> <PUBCHEM_CONFORMER_DIVERSEORDER>
1
3
2
4

> <PUBCHEM_MMFF94_PARTIAL_CHARGES>
17
1 -0.57
10 0.12
11 0.2
12 0.71
13 0.3
14 0.72
15 0.27
19 0.37
2 -0.57
20 0.37
3 0.3
4 -0.3
5 -0.71
6 -0.12
7 -0.06
8 -0.8
9 -0.24

> <PUBCHEM_EFFECTIVE_ROTOR_COUNT>
1

> <PUBCHEM_PHARMACOPHORE_FEATURES>
7
1 1 acceptor
1 2 acceptor
1 3 donor
1 5 acceptor
1 8 donor
5 3 5 9 10 11 rings
6 4 6 7 9 10 12 rings

> <PUBCHEM_HEAVY_ATOM_COUNT>
14

> <PUBCHEM_ATOM_DEF_STEREO_COUNT>
0

> <PUBCHEM_ATOM_UDEF_STEREO_COUNT>
0

> <PUBCHEM_BOND_DEF_STEREO_COUNT>
0

> <PUBCHEM_BOND_UDEF_STEREO_COUNT>
0

> <PUBCHEM_ISOTOPIC_ATOM_COUNT>
0

> <PUBCHEM_COMPONENT_COUNT>
1

> <PUBCHEM_CACTVS_TAUTO_COUNT>
-1

> <PUBCHEM_CONFORMER_ID>
082EA55700000001

> <PUBCHEM_MMFF94_ENERGY>
33.4497

> <PUBCHEM_FEATURE_SELFOVERLAP>
35.634

> <PUBCHEM_SHAPE_FINGERPRINT>
10967382 1 18338797934830848582
11132069 177 18339637828823665048
11769659 78 18410569569946364762
12032990 46 18411143523621907127
12932764 1 17418083343324506902
14144814 61 18410573980967357730
14325111 11 18410575050430064512
16945 1 18266458900265690597
193761 8 17834114525749332226
200 152 17988351638183312453
20201158 50 18410575119223589186
20510252 161 18272934899194121321
20871998 184 18201719539610637359
21267235 1 18410020944115258858
21501502 16 18338521935943013997
21501925 9 18410565219307900952
23402539 116 18272079522550948175
23402655 69 18196636416637813021
23463225 33 18408886196322358062
23552423 10 18189899905602470884
23559900 14 18270116800286226030
2748010 2 18410853235382666349
5084963 1 18273215326420110689
528886 8 18339073783458566833
53812653 166 18341890745139125161
7364860 26 18197497544078515144

> <PUBCHEM_SHAPE_MULTIPOLES>
246.49
5.57
1.88
0.56
0.66
0.13
0
-1.21
0
-0.31
0
-0.01
0
0

> <PUBCHEM_SHAPE_SELFOVERLAP>
537.309

> <PUBCHEM_SHAPE_VOLUME>
131.6

> <PUBCHEM_COORDINATE_TYPE>
2
5
10

$$$$
