68870
  -OEChem-09252021333D

 54 56  0     1  0  0  0  0  0999 V2000
   -6.5198    3.2282    0.1761 Cl  0  0  0  0  0  0  0  0  0  0  0  0
   -3.0390   -0.3195   -1.7792 S   0  0  0  0  0  0  0  0  0  0  0  0
   -2.8761    0.5552   -2.9275 O   0  0  0  0  0  0  0  0  0  0  0  0
   -4.0791   -1.3329   -1.7679 O   0  0  0  0  0  0  0  0  0  0  0  0
    9.7077    0.9651   -0.8519 O   0  0  0  0  0  0  0  0  0  0  0  0
    8.8447   -0.1657    0.9182 O   0  0  0  0  0  0  0  0  0  0  0  0
   -0.1641    0.8356    0.2578 N   0  0  0  0  0  0  0  0  0  0  0  0
   -1.5273   -1.0782   -1.4690 N   0  0  1  0  0  0  0  0  0  0  0  0
   -1.2861    0.2845    1.0317 C   0  0  1  0  0  0  0  0  0  0  0  0
   -2.6021    0.9734    0.7181 C   0  0  0  0  0  0  0  0  0  0  0  0
   -1.3878   -1.2270    0.9599 C   0  0  0  0  0  0  0  0  0  0  0  0
   -3.3998    0.7691   -0.4195 C   0  0  0  0  0  0  0  0  0  0  0  0
   -1.4888   -1.8883   -0.2722 C   0  0  0  0  0  0  0  0  0  0  0  0
    1.0929    0.2962    0.7401 C   0  0  0  0  0  0  0  0  0  0  0  0
    2.2622    0.8956   -0.0408 C   0  0  0  0  0  0  0  0  0  0  0  0
    3.5998    0.3535    0.4687 C   0  0  0  0  0  0  0  0  0  0  0  0
   -3.0576    1.9141    1.6699 C   0  0  0  0  0  0  0  0  0  0  0  0
    4.8103    0.9008   -0.2937 C   0  0  0  0  0  0  0  0  0  0  0  0
   -1.4260   -1.9866    2.1404 C   0  0  0  0  0  0  0  0  0  0  0  0
   -4.6087    1.4726   -0.5776 C   0  0  0  0  0  0  0  0  0  0  0  0
   -1.6702   -3.2772   -0.3169 C   0  0  0  0  0  0  0  0  0  0  0  0
   -0.8262   -1.6333   -2.6591 C   0  0  0  0  0  0  0  0  0  0  0  0
    6.1787    0.4097    0.1873 C   0  0  0  0  0  0  0  0  0  0  0  0
   -4.2561    2.6103    1.5072 C   0  0  0  0  0  0  0  0  0  0  0  0
   -1.5721   -3.3732    2.0915 C   0  0  0  0  0  0  0  0  0  0  0  0
   -5.0344    2.3866    0.3817 C   0  0  0  0  0  0  0  0  0  0  0  0
   -1.6986   -4.0170    0.8640 C   0  0  0  0  0  0  0  0  0  0  0  0
    7.3433    0.9386   -0.6492 C   0  0  0  0  0  0  0  0  0  0  0  0
    8.6801    0.5097   -0.0881 C   0  0  0  0  0  0  0  0  0  0  0  0
   -1.0606    0.5193    2.0827 H   0  0  0  0  0  0  0  0  0  0  0  0
   -0.1535    1.8512    0.3541 H   0  0  0  0  0  0  0  0  0  0  0  0
    1.1402   -0.7918    0.6207 H   0  0  0  0  0  0  0  0  0  0  0  0
    1.2259    0.5224    1.8055 H   0  0  0  0  0  0  0  0  0  0  0  0
    2.2560    1.9888    0.0529 H   0  0  0  0  0  0  0  0  0  0  0  0
    2.1559    0.6615   -1.1077 H   0  0  0  0  0  0  0  0  0  0  0  0
    3.6012   -0.7411    0.3952 H   0  0  0  0  0  0  0  0  0  0  0  0
    3.7093    0.5991    1.5323 H   0  0  0  0  0  0  0  0  0  0  0  0
   -2.4722    2.1158    2.5654 H   0  0  0  0  0  0  0  0  0  0  0  0
    4.6987    0.6425   -1.3546 H   0  0  0  0  0  0  0  0  0  0  0  0
    4.7938    1.9969   -0.2399 H   0  0  0  0  0  0  0  0  0  0  0  0
   -1.3507   -1.5017    3.1107 H   0  0  0  0  0  0  0  0  0  0  0  0
   -5.2235    1.3064   -1.4608 H   0  0  0  0  0  0  0  0  0  0  0  0
   -1.7960   -3.7970   -1.2623 H   0  0  0  0  0  0  0  0  0  0  0  0
   -0.5936   -0.8242   -3.3582 H   0  0  0  0  0  0  0  0  0  0  0  0
   -1.4426   -2.3814   -3.1662 H   0  0  0  0  0  0  0  0  0  0  0  0
    0.1257   -2.0889   -2.3666 H   0  0  0  0  0  0  0  0  0  0  0  0
    6.1931   -0.6874    0.1747 H   0  0  0  0  0  0  0  0  0  0  0  0
    6.3122    0.7073    1.2352 H   0  0  0  0  0  0  0  0  0  0  0  0
   -4.5652    3.3202    2.2698 H   0  0  0  0  0  0  0  0  0  0  0  0
   -1.6004   -3.9485    3.0123 H   0  0  0  0  0  0  0  0  0  0  0  0
   -1.8295   -5.0944    0.8266 H   0  0  0  0  0  0  0  0  0  0  0  0
    7.2621    0.5630   -1.6749 H   0  0  0  0  0  0  0  0  0  0  0  0
    7.3195    2.0337   -0.6661 H   0  0  0  0  0  0  0  0  0  0  0  0
   10.5786    0.6879   -0.4956 H   0  0  0  0  0  0  0  0  0  0  0  0
  1 26  1  0  0  0  0
  2  3  2  0  0  0  0
  2  4  2  0  0  0  0
  2  8  1  0  0  0  0
  2 12  1  0  0  0  0
  5 29  1  0  0  0  0
  5 54  1  0  0  0  0
  6 29  2  0  0  0  0
  7  9  1  0  0  0  0
  7 14  1  0  0  0  0
  7 31  1  0  0  0  0
  8 13  1  0  0  0  0
  8 22  1  0  0  0  0
  9 10  1  0  0  0  0
  9 11  1  0  0  0  0
  9 30  1  0  0  0  0
 10 12  2  0  0  0  0
 10 17  1  0  0  0  0
 11 13  1  0  0  0  0
 11 19  2  0  0  0  0
 12 20  1  0  0  0  0
 13 21  2  0  0  0  0
 14 15  1  0  0  0  0
 14 32  1  0  0  0  0
 14 33  1  0  0  0  0
 15 16  1  0  0  0  0
 15 34  1  0  0  0  0
 15 35  1  0  0  0  0
 16 18  1  0  0  0  0
 16 36  1  0  0  0  0
 16 37  1  0  0  0  0
 17 24  2  0  0  0  0
 17 38  1  0  0  0  0
 18 23  1  0  0  0  0
 18 39  1  0  0  0  0
 18 40  1  0  0  0  0
 19 25  1  0  0  0  0
 19 41  1  0  0  0  0
 20 26  2  0  0  0  0
 20 42  1  0  0  0  0
 21 27  1  0  0  0  0
 21 43  1  0  0  0  0
 22 44  1  0  0  0  0
 22 45  1  0  0  0  0
 22 46  1  0  0  0  0
 23 28  1  0  0  0  0
 23 47  1  0  0  0  0
 23 48  1  0  0  0  0
 24 26  1  0  0  0  0
 24 49  1  0  0  0  0
 25 27  2  0  0  0  0
 25 50  1  0  0  0  0
 27 51  1  0  0  0  0
 28 29  1  0  0  0  0
 28 52  1  0  0  0  0
 28 53  1  0  0  0  0
M  END
> <PUBCHEM_COMPOUND_CID>
68870

> <PUBCHEM_CONFORMER_RMSD>
1

> <PUBCHEM_CONFORMER_DIVERSEORDER>
2
114
92
40
73
206
202
205
188
22
132
88
145
42
203
56
127
183
55
166
25
211
143
11
172
175
113
100
207
125
174
158
109
134
89
178
135
5
201
106
164
16
186
191
68
176
180
26
54
3
32
193
77
111
167
1
177
23
24
34
150
50
33
104
152
6
126
179
165
151
65
192
161
59
82
48
7
36
162
97
184
197
53
163
31
38
20
200
209
120
95
8
157
112
149
170
168
79
213
173
96
98
78
119
61
138
91
190
118
214
124
196
85
66
146
21
72
60
49
84
129
122
46
58
28
14
155
208
147
10
9
142
131
101
128
210
110
154
39
67
75
187
30
117
160
62
153
123
74
35
76
15
116
44
43
13
139
90
133
81
94
93
47
105
87
181
195
17
198
41
102
156
37
64
69
70
159
115
29
103
19
189
18
51
107
45
83
148
130
185
27
12
169
182
136
52
140
141
171
4
57
137
71
194
108
144
80
121
204
212
99
63
86
199

> <PUBCHEM_MMFF94_PARTIAL_CHARGES>
34
1 -0.18
10 -0.14
11 -0.14
12 -0.01
13 0.2
14 0.27
17 -0.15
19 -0.15
2 1.45
20 -0.15
21 -0.15
22 0.36
24 -0.15
25 -0.15
26 0.18
27 -0.15
28 0.06
29 0.66
3 -0.65
31 0.36
38 0.15
4 -0.65
41 0.15
42 0.15
43 0.15
49 0.15
5 -0.65
50 0.15
51 0.15
54 0.5
6 -0.57
7 -0.9
8 -0.69
9 0.56

> <PUBCHEM_EFFECTIVE_ROTOR_COUNT>
8.4

> <PUBCHEM_PHARMACOPHORE_FEATURES>
11
1 3 acceptor
1 4 acceptor
1 5 acceptor
1 6 acceptor
1 7 cation
1 7 donor
3 5 6 29 anion
5 15 16 18 23 28 hydrophobe
6 10 12 17 20 24 26 rings
6 11 13 19 21 25 27 rings
7 2 8 9 10 11 12 13 rings

> <PUBCHEM_HEAVY_ATOM_COUNT>
29

> <PUBCHEM_ATOM_DEF_STEREO_COUNT>
0

> <PUBCHEM_ATOM_UDEF_STEREO_COUNT>
1

> <PUBCHEM_BOND_DEF_STEREO_COUNT>
0

> <PUBCHEM_BOND_UDEF_STEREO_COUNT>
0

> <PUBCHEM_ISOTOPIC_ATOM_COUNT>
0

> <PUBCHEM_COMPONENT_COUNT>
1

> <PUBCHEM_CACTVS_TAUTO_COUNT>
1

> <PUBCHEM_CONFORMER_ID>
00010D0600000002

> <PUBCHEM_MMFF94_ENERGY>
68.9605

> <PUBCHEM_FEATURE_SELFOVERLAP>
55.913

> <PUBCHEM_SHAPE_FINGERPRINT>
10369192 42 18113901503562925101
10674148 151 14692568793921455633
107951 10 18411984641854677631
11135926 11 17968088708668361490
11200772 48 17988924466081661284
11315181 36 16486976219879555584
14713325 29 17917711340393238415
15183329 4 18040707087953572834
15439362 3 18196378009106885779
16114785 44 15193911988928757794
17093844 174 18342458184261642896
17686467 74 8718527404108489140
20721686 146 17024020463848815013
21756936 100 18408888425526488113
23198884 109 18335697278002619980
23419403 2 17266714587532065771
23559900 14 16558455453252210792
249057 3 18201721756415876280
4073 2 18411702132486797840
44802255 64 17530673312497574966
484985 159 18337392772098942650
497634 4 17823420590069499654
559249 180 18201999937035976556
58260988 114 16951423180730070675
59755656 520 18261108564963003193
6009941 240 18412268337840741384
6669772 16 18268156365999636111
6691757 9 18341623611111035288
9981440 41 18059862769946278903

> <PUBCHEM_SHAPE_MULTIPOLES>
569.09
19.36
3.79
2.1
72.19
3.23
0.96
-17.31
1.61
-7.12
-1.6
-2.42
1.06
-1.1

> <PUBCHEM_SHAPE_SELFOVERLAP>
1172.371

> <PUBCHEM_SHAPE_VOLUME>
326.2

> <PUBCHEM_COORDINATE_TYPE>
2
5
10

$$$$
