5471
  -OEChem-09252021333D

 41 43  0     1  0  0  0  0  0999 V2000
   -2.3320    1.3466   -1.7582 S   0  0  0  0  0  0  0  0  0  0  0  0
    3.5276   -3.4576    0.3205 S   0  0  0  0  0  0  0  0  0  0  0  0
   -1.8996    1.2111    2.6228 O   0  0  0  0  0  0  0  0  0  0  0  0
   -5.4953   -1.2256    0.6645 O   0  0  0  0  0  0  0  0  0  0  0  0
   -3.4736   -2.0371    1.3355 O   0  0  0  0  0  0  0  0  0  0  0  0
    1.8172    1.6022   -1.1920 O   0  0  0  0  0  0  0  0  0  0  0  0
    4.3815    2.5974    0.4858 O   0  0  0  0  0  0  0  0  0  0  0  0
    5.4150    0.8578   -0.5432 O   0  0  0  0  0  0  0  0  0  0  0  0
   -2.1944    0.1467    0.5371 N   0  0  0  0  0  0  0  0  0  0  0  0
    0.8266    0.9393    0.7986 N   0  0  0  0  0  0  0  0  0  0  0  0
   -1.2629    0.4989   -0.5384 C   0  0  2  0  0  0  0  0  0  0  0  0
   -3.7899    0.2960   -1.2681 C   0  0  0  0  0  0  0  0  0  0  0  0
   -3.6153    0.1176    0.2555 C   0  0  1  0  0  0  0  0  0  0  0  0
   -0.5306    1.3890    0.4753 C   0  0  1  0  0  0  0  0  0  0  0  0
   -1.5963    0.9230    1.4873 C   0  0  0  0  0  0  0  0  0  0  0  0
   -5.0795    1.0504   -1.5970 C   0  0  0  0  0  0  0  0  0  0  0  0
   -3.7238   -1.0087   -2.0738 C   0  0  0  0  0  0  0  0  0  0  0  0
   -4.1497   -1.1623    0.8149 C   0  0  0  0  0  0  0  0  0  0  0  0
    1.9020    1.0874   -0.0785 C   0  0  0  0  0  0  0  0  0  0  0  0
    3.2135    0.5325    0.4750 C   0  0  1  0  0  0  0  0  0  0  0  0
    3.3322   -0.9323    0.1212 C   0  0  0  0  0  0  0  0  0  0  0  0
    4.4473    1.3117    0.0513 C   0  0  0  0  0  0  0  0  0  0  0  0
    3.3879   -1.3968   -1.2071 C   0  0  0  0  0  0  0  0  0  0  0  0
    3.3959   -1.9178    1.0580 C   0  0  0  0  0  0  0  0  0  0  0  0
    3.4963   -2.7695   -1.2472 C   0  0  0  0  0  0  0  0  0  0  0  0
   -0.7203   -0.3725   -0.9181 H   0  0  0  0  0  0  0  0  0  0  0  0
   -4.0731    0.9443    0.8154 H   0  0  0  0  0  0  0  0  0  0  0  0
   -0.5677    2.4687    0.2916 H   0  0  0  0  0  0  0  0  0  0  0  0
   -5.1592    1.2607   -2.6701 H   0  0  0  0  0  0  0  0  0  0  0  0
   -5.9623    0.4655   -1.3176 H   0  0  0  0  0  0  0  0  0  0  0  0
   -5.1396    2.0065   -1.0640 H   0  0  0  0  0  0  0  0  0  0  0  0
   -3.7189   -0.8129   -3.1528 H   0  0  0  0  0  0  0  0  0  0  0  0
   -2.8309   -1.5979   -1.8366 H   0  0  0  0  0  0  0  0  0  0  0  0
   -4.5948   -1.6428   -1.8746 H   0  0  0  0  0  0  0  0  0  0  0  0
    1.0047    0.4920    1.6948 H   0  0  0  0  0  0  0  0  0  0  0  0
    3.1873    0.6177    1.5716 H   0  0  0  0  0  0  0  0  0  0  0  0
   -5.8652   -2.0605    1.0227 H   0  0  0  0  0  0  0  0  0  0  0  0
    3.3532   -0.7818   -2.0972 H   0  0  0  0  0  0  0  0  0  0  0  0
    3.3731   -1.8303    2.1353 H   0  0  0  0  0  0  0  0  0  0  0  0
    3.5587   -3.4010   -2.1221 H   0  0  0  0  0  0  0  0  0  0  0  0
    5.1861    3.1053    0.2469 H   0  0  0  0  0  0  0  0  0  0  0  0
  1 11  1  0  0  0  0
  1 12  1  0  0  0  0
  2 24  1  0  0  0  0
  2 25  1  0  0  0  0
  3 15  2  0  0  0  0
  4 18  1  0  0  0  0
  4 37  1  0  0  0  0
  5 18  2  0  0  0  0
  6 19  2  0  0  0  0
  7 22  1  0  0  0  0
  7 41  1  0  0  0  0
  8 22  2  0  0  0  0
  9 11  1  0  0  0  0
  9 13  1  0  0  0  0
  9 15  1  0  0  0  0
 10 14  1  0  0  0  0
 10 19  1  0  0  0  0
 10 35  1  0  0  0  0
 11 14  1  0  0  0  0
 11 26  1  0  0  0  0
 12 13  1  0  0  0  0
 12 16  1  0  0  0  0
 12 17  1  0  0  0  0
 13 18  1  0  0  0  0
 13 27  1  0  0  0  0
 14 15  1  0  0  0  0
 14 28  1  0  0  0  0
 16 29  1  0  0  0  0
 16 30  1  0  0  0  0
 16 31  1  0  0  0  0
 17 32  1  0  0  0  0
 17 33  1  0  0  0  0
 17 34  1  0  0  0  0
 19 20  1  0  0  0  0
 20 21  1  0  0  0  0
 20 22  1  0  0  0  0
 20 36  1  0  0  0  0
 21 23  1  0  0  0  0
 21 24  2  0  0  0  0
 23 25  2  0  0  0  0
 23 38  1  0  0  0  0
 24 39  1  0  0  0  0
 25 40  1  0  0  0  0
M  END
> <PUBCHEM_COMPOUND_CID>
5471

> <PUBCHEM_CONFORMER_RMSD>
1

> <PUBCHEM_CONFORMER_DIVERSEORDER>
18
384
89
12
518
584
107
491
540
574
83
286
68
302
297
233
451
478
576
524
11
122
566
207
463
571
148
326
60
98
344
469
15
36
371
113
194
197
537
45
490
56
413
120
569
296
279
405
135
10
174
370
558
59
193
140
402
38
4
16
138
94
446
362
156
22
317
376
573
84
47
425
90
321
2
97
124
208
204
7
154
111
237
95
196
164
115
167
561
532
31
26
255
447
161
192
55
201
103
386
19
39
507
23
232
69
17
160
273
137
206
238
292
139
106
1
8
546
341
577
420
333
126
240
517
27
423
494
485
519
493
476
224
215
75
200
256
104
3
179
270
24
229
25
176
397
205
5
330
282
58
30
288
96
143
531
50
74
76
266
72
461
29
88
6
14
61

> <PUBCHEM_MMFF94_PARTIAL_CHARGES>
29
1 -0.45
10 -0.65
11 0.44
12 0.23
13 0.36
14 0.28
15 0.58
18 0.66
19 0.57
2 -0.08
20 0.3
21 -0.18
22 0.66
23 -0.15
24 -0.11
25 -0.11
3 -0.57
35 0.37
37 0.5
38 0.15
39 0.15
4 -0.65
40 0.15
41 0.5
5 -0.57
6 -0.57
7 -0.65
8 -0.57
9 -0.59

> <PUBCHEM_EFFECTIVE_ROTOR_COUNT>
6.8

> <PUBCHEM_PHARMACOPHORE_FEATURES>
14
1 10 donor
1 20 anion
1 3 acceptor
1 4 acceptor
1 5 acceptor
1 6 acceptor
1 7 acceptor
1 8 acceptor
3 12 16 17 hydrophobe
3 4 5 18 anion
3 7 8 22 anion
4 9 11 14 15 rings
5 2 21 23 24 25 rings
7 1 9 11 12 13 14 15 rings

> <PUBCHEM_HEAVY_ATOM_COUNT>
25

> <PUBCHEM_ATOM_DEF_STEREO_COUNT>
0

> <PUBCHEM_ATOM_UDEF_STEREO_COUNT>
4

> <PUBCHEM_BOND_DEF_STEREO_COUNT>
0

> <PUBCHEM_BOND_UDEF_STEREO_COUNT>
0

> <PUBCHEM_ISOTOPIC_ATOM_COUNT>
0

> <PUBCHEM_COMPONENT_COUNT>
1

> <PUBCHEM_CACTVS_TAUTO_COUNT>
2

> <PUBCHEM_CONFORMER_ID>
0000155F00000012

> <PUBCHEM_MMFF94_ENERGY>
56.1841

> <PUBCHEM_FEATURE_SELFOVERLAP>
75.147

> <PUBCHEM_SHAPE_FINGERPRINT>
10090160 65 18128811031527871968
10366900 7 16773791515343349494
11595378 159 16630533907650642747
12553582 1 17346876766912499633
12596602 18 16701461311257417083
12788726 201 17203616964787027241
13009979 54 17273424859741134578
13224815 77 18413393120270265918
13533116 47 18201438052012833787
13583140 156 18342734160931641397
13617811 41 16443063937617361231
14251757 17 18186518795789050419
14508693 111 16196728286555468742
14848160 33 18340482258207390158
14910302 57 17677044655562835399
15183329 4 17561072585082992749
15375358 24 17749103413753255888
15475509 35 17914055558852441899
15537594 2 17988927802970745655
17134984 74 18198601410850570383
17138139 8 17556834126038463670
17349148 13 16271917216948045893
18222031 100 15554151662580612741
19377110 9 17561077008497757570
20645477 70 18334857186884432650
21033650 10 16443630060839159396
21054139 6 18130213978457638734
22393880 68 17822287925399605890
22907989 373 15286228128069346835
235170 7 18113332011777706406
23557571 272 17676487284909081285
23559900 14 18186516575496335500
23596394 208 18261111846739984342
23598288 3 17631181788080222017
25222932 49 17916020359606898735
312423 11 18059022674701331240
312425 83 16588600694726402374
46194498 28 17604438516796539645
7399639 24 18262789804569226916
90316 7 16272206362741511857
9709674 26 18334570196874360300

> <PUBCHEM_SHAPE_MULTIPOLES>
477.01
12.02
2.86
1.82
1.17
1.63
0.06
2.71
-1.91
-3.88
0.12
1.91
0
0.98

> <PUBCHEM_SHAPE_SELFOVERLAP>
992.898

> <PUBCHEM_SHAPE_VOLUME>
274.5

> <PUBCHEM_COORDINATE_TYPE>
2
5
10

$$$$
