54681041
  -OEChem-09252021333D

 81 84  0     1  0  0  0  0  0999 V2000
   -3.5386    1.6762    1.7401 O   0  0  0  0  0  0  0  0  0  0  0  0
   -2.0789    2.8155   -0.4646 O   0  0  0  0  0  0  0  0  0  0  0  0
   -4.7154    2.8668   -0.6815 O   0  0  0  0  0  0  0  0  0  0  0  0
    0.4413    2.2744    0.4712 O   0  0  0  0  0  0  0  0  0  0  0  0
   -6.7972   -1.4058   -0.3061 O   0  0  0  0  0  0  0  0  0  0  0  0
    2.9686    1.8085   -0.2570 O   0  0  0  0  0  0  0  0  0  0  0  0
   -6.7831    1.5815   -2.5663 O   0  0  0  0  0  0  0  0  0  0  0  0
    6.1421   -1.8770    0.3421 O   0  0  0  0  0  0  0  0  0  0  0  0
   -5.2732   -0.7038    2.3030 N   0  0  0  0  0  0  0  0  0  0  0  0
    1.7451   -3.6104   -0.6267 N   0  0  0  0  0  0  0  0  0  0  0  0
   -8.1465    1.1965   -0.7430 N   0  0  0  0  0  0  0  0  0  0  0  0
    4.9743   -0.0449   -0.5579 N   0  0  0  0  0  0  0  0  0  0  0  0
    7.6738    0.8636    0.7665 N   0  0  0  0  0  0  0  0  0  0  0  0
   -3.4421   -0.4621    0.6185 C   0  0  2  0  0  0  0  0  0  0  0  0
   -3.5206    1.0724    0.4418 C   0  0  2  0  0  0  0  0  0  0  0  0
   -2.8801   -1.1159   -0.6624 C   0  0  0  0  0  0  0  0  0  0  0  0
   -1.4217   -0.7090   -0.9219 C   0  0  1  0  0  0  0  0  0  0  0  0
   -4.8050   -1.0777    0.9704 C   0  0  2  0  0  0  0  0  0  0  0  0
   -1.0955    0.6702   -0.4053 C   0  0  0  0  0  0  0  0  0  0  0  0
   -2.2255    1.6239   -0.1914 C   0  0  0  0  0  0  0  0  0  0  0  0
   -0.4585   -1.7530   -0.3189 C   0  0  0  0  0  0  0  0  0  0  0  0
   -4.7605    1.5292   -0.3199 C   0  0  0  0  0  0  0  0  0  0  0  0
   -5.8692   -0.6492   -0.0176 C   0  0  0  0  0  0  0  0  0  0  0  0
    0.9763   -1.2893   -0.3904 C   0  0  0  0  0  0  0  0  0  0  0  0
    0.1575    1.0385   -0.0744 C   0  0  0  0  0  0  0  0  0  0  0  0
   -5.8187    0.7348   -0.5865 C   0  0  0  0  0  0  0  0  0  0  0  0
    1.2738    0.0836   -0.2612 C   0  0  0  0  0  0  0  0  0  0  0  0
    2.0097   -2.2248   -0.5371 C   0  0  0  0  0  0  0  0  0  0  0  0
   -6.5669   -1.3254    2.5824 C   0  0  0  0  0  0  0  0  0  0  0  0
   -4.2912   -1.0885    3.3158 C   0  0  0  0  0  0  0  0  0  0  0  0
    2.6148    0.4902   -0.3278 C   0  0  0  0  0  0  0  0  0  0  0  0
   -6.9454    1.2135   -1.4081 C   0  0  0  0  0  0  0  0  0  0  0  0
    3.3360   -1.8030   -0.5894 C   0  0  0  0  0  0  0  0  0  0  0  0
    3.6372   -0.4477   -0.4904 C   0  0  0  0  0  0  0  0  0  0  0  0
    2.1519   -4.3573   -1.7977 C   0  0  0  0  0  0  0  0  0  0  0  0
    1.0718   -4.2960    0.4558 C   0  0  0  0  0  0  0  0  0  0  0  0
    6.1162   -0.7558   -0.1552 C   0  0  0  0  0  0  0  0  0  0  0  0
    7.3741    0.0571   -0.4079 C   0  0  0  0  0  0  0  0  0  0  0  0
    8.8828    1.6510    0.5637 C   0  0  0  0  0  0  0  0  0  0  0  0
   10.0492    0.6941    0.2956 C   0  0  0  0  0  0  0  0  0  0  0  0
    9.1529    2.4667    1.8325 C   0  0  0  0  0  0  0  0  0  0  0  0
    8.6844    2.5884   -0.6332 C   0  0  0  0  0  0  0  0  0  0  0  0
   -2.7182   -0.7064    1.4042 H   0  0  0  0  0  0  0  0  0  0  0  0
   -3.4828   -0.8200   -1.5310 H   0  0  0  0  0  0  0  0  0  0  0  0
   -2.9597   -2.2088   -0.6044 H   0  0  0  0  0  0  0  0  0  0  0  0
   -1.2683   -0.6991   -2.0108 H   0  0  0  0  0  0  0  0  0  0  0  0
   -4.7153   -2.1714    0.8954 H   0  0  0  0  0  0  0  0  0  0  0  0
   -0.6051   -2.6739   -0.8933 H   0  0  0  0  0  0  0  0  0  0  0  0
   -0.7095   -1.9563    0.7297 H   0  0  0  0  0  0  0  0  0  0  0  0
   -2.7450    1.3877    2.2225 H   0  0  0  0  0  0  0  0  0  0  0  0
   -4.7070   -0.9475    4.3213 H   0  0  0  0  0  0  0  0  0  0  0  0
   -3.3968   -0.4616    3.3051 H   0  0  0  0  0  0  0  0  0  0  0  0
   -3.9940   -2.1403    3.2302 H   0  0  0  0  0  0  0  0  0  0  0  0
   -6.8484   -1.1644    3.6306 H   0  0  0  0  0  0  0  0  0  0  0  0
   -6.5623   -2.4078    2.4086 H   0  0  0  0  0  0  0  0  0  0  0  0
   -7.3800   -0.8666    2.0112 H   0  0  0  0  0  0  0  0  0  0  0  0
   -5.5420    3.1044   -1.1324 H   0  0  0  0  0  0  0  0  0  0  0  0
    4.1161   -2.5442   -0.7343 H   0  0  0  0  0  0  0  0  0  0  0  0
   -0.3748    2.7884    0.5758 H   0  0  0  0  0  0  0  0  0  0  0  0
   -8.2366    0.8889    0.2204 H   0  0  0  0  0  0  0  0  0  0  0  0
   -8.9987    1.5018   -1.2012 H   0  0  0  0  0  0  0  0  0  0  0  0
    3.8729    1.8839    0.0881 H   0  0  0  0  0  0  0  0  0  0  0  0
    5.1266    0.9334   -0.7871 H   0  0  0  0  0  0  0  0  0  0  0  0
    1.0273   -3.6932    1.3698 H   0  0  0  0  0  0  0  0  0  0  0  0
    0.0541   -4.5790    0.1693 H   0  0  0  0  0  0  0  0  0  0  0  0
    1.6118   -5.2157    0.7078 H   0  0  0  0  0  0  0  0  0  0  0  0
    1.9339   -3.8000   -2.7154 H   0  0  0  0  0  0  0  0  0  0  0  0
    3.2240   -4.5767   -1.7659 H   0  0  0  0  0  0  0  0  0  0  0  0
    1.6179   -5.3118   -1.8607 H   0  0  0  0  0  0  0  0  0  0  0  0
    8.1469   -0.6879   -0.6234 H   0  0  0  0  0  0  0  0  0  0  0  0
    7.2104    0.6434   -1.3174 H   0  0  0  0  0  0  0  0  0  0  0  0
    6.8870    1.4833    0.9612 H   0  0  0  0  0  0  0  0  0  0  0  0
    9.4951    3.3268   -0.6723 H   0  0  0  0  0  0  0  0  0  0  0  0
   11.0020    1.2353    0.3536 H   0  0  0  0  0  0  0  0  0  0  0  0
   10.0964   -0.1085    1.0415 H   0  0  0  0  0  0  0  0  0  0  0  0
   10.0247    0.2415   -0.7013 H   0  0  0  0  0  0  0  0  0  0  0  0
   10.0634    3.0682    1.7301 H   0  0  0  0  0  0  0  0  0  0  0  0
    9.2841    1.8160    2.7051 H   0  0  0  0  0  0  0  0  0  0  0  0
    8.3269    3.1541    2.0500 H   0  0  0  0  0  0  0  0  0  0  0  0
    7.7468    3.1519   -0.5571 H   0  0  0  0  0  0  0  0  0  0  0  0
    8.7023    2.0746   -1.5998 H   0  0  0  0  0  0  0  0  0  0  0  0
  1 15  1  0  0  0  0
  1 50  1  0  0  0  0
  2 20  2  0  0  0  0
  3 22  1  0  0  0  0
  3 57  1  0  0  0  0
  4 25  1  0  0  0  0
  4 59  1  0  0  0  0
  5 23  2  0  0  0  0
  6 31  1  0  0  0  0
  6 62  1  0  0  0  0
  7 32  2  0  0  0  0
  8 37  2  0  0  0  0
  9 18  1  0  0  0  0
  9 29  1  0  0  0  0
  9 30  1  0  0  0  0
 10 28  1  0  0  0  0
 10 35  1  0  0  0  0
 10 36  1  0  0  0  0
 11 32  1  0  0  0  0
 11 60  1  0  0  0  0
 11 61  1  0  0  0  0
 12 34  1  0  0  0  0
 12 37  1  0  0  0  0
 12 63  1  0  0  0  0
 13 38  1  0  0  0  0
 13 39  1  0  0  0  0
 13 72  1  0  0  0  0
 14 15  1  0  0  0  0
 14 16  1  0  0  0  0
 14 18  1  0  0  0  0
 14 43  1  0  0  0  0
 15 20  1  0  0  0  0
 15 22  1  0  0  0  0
 16 17  1  0  0  0  0
 16 44  1  0  0  0  0
 16 45  1  0  0  0  0
 17 19  1  0  0  0  0
 17 21  1  0  0  0  0
 17 46  1  0  0  0  0
 18 23  1  0  0  0  0
 18 47  1  0  0  0  0
 19 20  1  0  0  0  0
 19 25  2  0  0  0  0
 21 24  1  0  0  0  0
 21 48  1  0  0  0  0
 21 49  1  0  0  0  0
 22 26  2  0  0  0  0
 23 26  1  0  0  0  0
 24 27  1  0  0  0  0
 24 28  2  0  0  0  0
 25 27  1  0  0  0  0
 26 32  1  0  0  0  0
 27 31  2  0  0  0  0
 28 33  1  0  0  0  0
 29 54  1  0  0  0  0
 29 55  1  0  0  0  0
 29 56  1  0  0  0  0
 30 51  1  0  0  0  0
 30 52  1  0  0  0  0
 30 53  1  0  0  0  0
 31 34  1  0  0  0  0
 33 34  2  0  0  0  0
 33 58  1  0  0  0  0
 35 67  1  0  0  0  0
 35 68  1  0  0  0  0
 35 69  1  0  0  0  0
 36 64  1  0  0  0  0
 36 65  1  0  0  0  0
 36 66  1  0  0  0  0
 37 38  1  0  0  0  0
 38 70  1  0  0  0  0
 38 71  1  0  0  0  0
 39 40  1  0  0  0  0
 39 41  1  0  0  0  0
 39 42  1  0  0  0  0
 40 74  1  0  0  0  0
 40 75  1  0  0  0  0
 40 76  1  0  0  0  0
 41 77  1  0  0  0  0
 41 78  1  0  0  0  0
 41 79  1  0  0  0  0
 42 73  1  0  0  0  0
 42 80  1  0  0  0  0
 42 81  1  0  0  0  0
M  END
> <PUBCHEM_COMPOUND_CID>
54681041

> <PUBCHEM_CONFORMER_RMSD>
1

> <PUBCHEM_CONFORMER_DIVERSEORDER>
4
108
183
150
177
56
126
68
50
53
58
79
92
52
1
170
182
140
135
76
95
152
74
109
132
161
43
134
156
38
51
179
57
87
17
23
107
111
24
144
130
6
123
103
133
73
66
82
77
91
102
155
75
104
127
45
151
35
94
40
99
125
96
172
100
25
121
178
139
62
118
141
81
154
70
55
22
30
8
27
47
67
29
180
3
18
163
113
20
31
84
110
49
174
9
85
145
83
44
28
54
122
36
120
2
148
143
21
101
64
72
159
112
14
115
166
41
71
167
46
158
98
26
89
117
138
80
119
97
60
78
147
15
33
7
164
61
59
160
171
162
34
129
42
86
169
63
146
106
157
90
181
69
19
39
168
149
142
124
37
136
32
10
114
93
175
128
48
16
105
176
5
131
116
88
13
12
165
11
153
65
137
173

> <PUBCHEM_MMFF94_PARTIAL_CHARGES>
46
1 -0.68
10 -0.84
11 -0.8
12 -0.55
13 -0.9
15 0.48
17 0.14
18 0.33
19 -0.12
2 -0.57
20 0.49
21 0.14
22 -0.06
23 0.49
24 -0.14
25 0.05
26 0.03
27 0.03
28 0.1
29 0.27
3 -0.53
30 0.27
31 0.08
32 0.62
33 -0.15
34 0.12
35 0.37
36 0.37
37 0.57
38 0.33
39 0.27
4 -0.53
5 -0.57
50 0.4
57 0.45
58 0.15
59 0.45
6 -0.53
60 0.37
61 0.37
62 0.45
63 0.37
7 -0.57
72 0.36
8 -0.57
9 -0.81

> <PUBCHEM_EFFECTIVE_ROTOR_COUNT>
8.6

> <PUBCHEM_PHARMACOPHORE_FEATURES>
21
1 1 acceptor
1 1 donor
1 10 cation
1 11 donor
1 12 donor
1 13 cation
1 13 donor
1 2 acceptor
1 26 anion
1 3 donor
1 4 donor
1 5 acceptor
1 6 donor
1 7 acceptor
1 8 acceptor
1 9 cation
4 39 40 41 42 hydrophobe
6 14 15 16 17 19 20 rings
6 14 15 18 22 23 26 rings
6 17 19 21 24 25 27 rings
6 24 27 28 31 33 34 rings

> <PUBCHEM_HEAVY_ATOM_COUNT>
42

> <PUBCHEM_ATOM_DEF_STEREO_COUNT>
0

> <PUBCHEM_ATOM_UDEF_STEREO_COUNT>
4

> <PUBCHEM_BOND_DEF_STEREO_COUNT>
0

> <PUBCHEM_BOND_UDEF_STEREO_COUNT>
0

> <PUBCHEM_ISOTOPIC_ATOM_COUNT>
0

> <PUBCHEM_COMPONENT_COUNT>
1

> <PUBCHEM_CACTVS_TAUTO_COUNT>
1000

> <PUBCHEM_CONFORMER_ID>
03425DD100000004

> <PUBCHEM_MMFF94_ENERGY>
156.4407

> <PUBCHEM_FEATURE_SELFOVERLAP>
106.699

> <PUBCHEM_SHAPE_FINGERPRINT>
10 15 18408601470677669360
10391435 84 18187364337341925456
10930396 42 17095518487808624581
11007060 377 18201730552360347954
11135926 11 18343026583784841893
11136131 41 18261389980423075930
11315181 36 18342176657492506529
11719270 70 18410571748001608446
12373685 5 16660638544820172160
12838862 33 18340189852712913148
12925494 130 18056469781239611456
13811026 1 18333452049167027044
14068700 686 18268712706367465932
14849402 71 17846220011981533664
14856354 85 14333117603483140853
14937079 2 18341613763791060640
15289351 153 18201153262186345520
15461852 350 16773790415763429845
16067689 68 15502373452341527242
16126227 98 18130228259350771010
18603816 31 14418415558874885282
19611394 137 17969514873174024408
19841028 212 17023737919857485162
23559900 14 18335136488924468837
24771293 8 18201725041891556716
25019877 29 18272938237101135830
3178227 256 18338809991326262298
4073 2 18262524680648368033
4169191 19 18131635582235572976
4173938 188 18201718518073812835
4403749 210 18334574685068270594
4874694 18 17968089811330257170
5080951 261 16950556723193118363
5104073 3 18193288390302825899
5109719 28 18272093786411579586
57527295 17 18115852067909303351
5758199 1 18060145357899669986
6703917 75 15267060371595063013

> <PUBCHEM_SHAPE_MULTIPOLES>
792.48
26.64
3.72
1.76
44.68
3.12
-1.27
-17.33
-4.61
2.82
0.85
-3.48
0.27
3.82

> <PUBCHEM_SHAPE_SELFOVERLAP>
1707.476

> <PUBCHEM_SHAPE_VOLUME>
432.6

> <PUBCHEM_COORDINATE_TYPE>
2
5
10

$$$$
