60937
  -OEChem-09252021333D

 26 26  0     0  0  0  0  0  0999 V2000
    5.3723   -0.1946    0.6321 Cl  0  0  0  0  0  0  0  0  0  0  0  0
   -0.5692    1.1839   -0.9145 S   0  0  0  0  0  0  0  0  0  0  0  0
   -3.2198    0.7053    0.0589 P   0  0  0  0  0  0  0  0  0  0  0  0
   -0.9051   -1.4961    0.1099 P   0  0  0  0  0  0  0  0  0  0  0  0
   -3.9836    0.0053    1.3009 O   0  0  0  0  0  0  0  0  0  0  0  0
   -3.2365    2.2713    0.4629 O   0  0  0  0  0  0  0  0  0  0  0  0
   -1.8212   -2.3184    1.1594 O   0  0  0  0  0  0  0  0  0  0  0  0
   -1.5019   -1.9533   -1.3217 O   0  0  0  0  0  0  0  0  0  0  0  0
   -3.7903    0.3798   -1.2897 O   0  0  0  0  0  0  0  0  0  0  0  0
    0.5704   -1.6978    0.2866 O   0  0  0  0  0  0  0  0  0  0  0  0
   -1.5009    0.1965    0.3146 C   0  0  0  0  0  0  0  0  0  0  0  0
    1.1172    0.7920   -0.4753 C   0  0  0  0  0  0  0  0  0  0  0  0
    1.5889    1.0907    0.8008 C   0  0  0  0  0  0  0  0  0  0  0  0
    1.9548    0.1887   -1.4104 C   0  0  0  0  0  0  0  0  0  0  0  0
    2.9058    0.7842    1.1436 C   0  0  0  0  0  0  0  0  0  0  0  0
    3.2717   -0.1177   -1.0675 C   0  0  0  0  0  0  0  0  0  0  0  0
    3.7473    0.1802    0.2095 C   0  0  0  0  0  0  0  0  0  0  0  0
   -1.2233    0.5259    1.3208 H   0  0  0  0  0  0  0  0  0  0  0  0
    0.9542    1.5692    1.5420 H   0  0  0  0  0  0  0  0  0  0  0  0
    1.6007   -0.0516   -2.4097 H   0  0  0  0  0  0  0  0  0  0  0  0
   -4.9576    0.0978    1.3718 H   0  0  0  0  0  0  0  0  0  0  0  0
   -4.0753    2.7732    0.3819 H   0  0  0  0  0  0  0  0  0  0  0  0
   -1.6683   -3.2811    1.2694 H   0  0  0  0  0  0  0  0  0  0  0  0
   -1.2908   -2.8497   -1.6592 H   0  0  0  0  0  0  0  0  0  0  0  0
    3.2633    1.0238    2.1418 H   0  0  0  0  0  0  0  0  0  0  0  0
    3.9160   -0.5887   -1.8055 H   0  0  0  0  0  0  0  0  0  0  0  0
  1 17  1  0  0  0  0
  2 11  1  0  0  0  0
  2 12  1  0  0  0  0
  3  5  1  0  0  0  0
  3  6  1  0  0  0  0
  3  9  2  0  0  0  0
  3 11  1  0  0  0  0
  4  7  1  0  0  0  0
  4  8  1  0  0  0  0
  4 10  2  0  0  0  0
  4 11  1  0  0  0  0
  5 21  1  0  0  0  0
  6 22  1  0  0  0  0
  7 23  1  0  0  0  0
  8 24  1  0  0  0  0
 11 18  1  0  0  0  0
 12 13  2  0  0  0  0
 12 14  1  0  0  0  0
 13 15  1  0  0  0  0
 13 19  1  0  0  0  0
 14 16  2  0  0  0  0
 14 20  1  0  0  0  0
 15 17  2  0  0  0  0
 15 25  1  0  0  0  0
 16 17  1  0  0  0  0
 16 26  1  0  0  0  0
M  END
> <PUBCHEM_COMPOUND_CID>
60937

> <PUBCHEM_CONFORMER_RMSD>
0.6

> <PUBCHEM_CONFORMER_DIVERSEORDER>
1
3
2

> <PUBCHEM_MMFF94_PARTIAL_CHARGES>
25
1 -0.18
10 -0.7
11 0.23
12 0.1
13 -0.15
14 -0.15
15 -0.15
16 -0.15
17 0.18
19 0.15
2 -0.33
20 0.15
21 0.5
22 0.5
23 0.5
24 0.5
25 0.15
26 0.15
3 1.24
4 1.24
5 -0.77
6 -0.77
7 -0.77
8 -0.77
9 -0.7

> <PUBCHEM_EFFECTIVE_ROTOR_COUNT>
4

> <PUBCHEM_PHARMACOPHORE_FEATURES>
9
1 10 acceptor
1 5 acceptor
1 6 acceptor
1 7 acceptor
1 8 acceptor
1 9 acceptor
4 3 5 6 9 anion
4 4 7 8 10 anion
6 12 13 14 15 16 17 rings

> <PUBCHEM_HEAVY_ATOM_COUNT>
17

> <PUBCHEM_ATOM_DEF_STEREO_COUNT>
0

> <PUBCHEM_ATOM_UDEF_STEREO_COUNT>
0

> <PUBCHEM_BOND_DEF_STEREO_COUNT>
0

> <PUBCHEM_BOND_UDEF_STEREO_COUNT>
0

> <PUBCHEM_ISOTOPIC_ATOM_COUNT>
0

> <PUBCHEM_COMPONENT_COUNT>
1

> <PUBCHEM_CACTVS_TAUTO_COUNT>
1

> <PUBCHEM_CONFORMER_ID>
0000EE0900000001

> <PUBCHEM_MMFF94_ENERGY>
-26.005

> <PUBCHEM_FEATURE_SELFOVERLAP>
45.747

> <PUBCHEM_SHAPE_FINGERPRINT>
12119455 92 17060333007744492604
12236239 1 17095243618702331924
12346177 29 18337947999616210935
124424 183 18201717371126860824
12500047 106 18272929427669276598
12633257 1 18202561800220273600
13140716 1 18264494055754439785
13538477 17 17749394809845587268
13581323 91 18335424594549735349
13675066 3 17967249806369469280
14115302 16 18334020488642722692
15295992 7 17988928919841467633
15309172 13 18114183012566596741
15375358 24 17918273147653029164
15775835 57 18411980226190025034
16945 1 18334863818087136205
17834072 14 17132115753729172934
18186145 218 17489032569538695661
19422 9 17022914479092879912
200 152 14333126381768091316
20279233 1 17775007907803437182
20600515 1 18410019827455846084
20645477 70 16630534986315246828
21501502 16 18198058295156146692
21524375 3 18410010996923340271
23402539 116 17988634177494819341
23419403 2 14977680018192731791
23559900 14 18340780282367851694
23598291 2 17241052123108949982
276578 36 18335426703357500816
296302 2 15626225719090529424
465052 167 17241631561810994979
57426455 114 18272364282987625456
69090 78 17846214475319756455
74978 22 18041560372341102396
81228 2 18050000292732274875

> <PUBCHEM_SHAPE_MULTIPOLES>
328.05
8.18
1.85
1.34
3.67
0.72
0.18
-1.14
-1.59
-1.65
-0.21
-0.05
0.06
0.13

> <PUBCHEM_SHAPE_SELFOVERLAP>
620.902

> <PUBCHEM_SHAPE_VOLUME>
203.4

> <PUBCHEM_COORDINATE_TYPE>
2
5
10

$$$$
