456204
  -OEChem-09252021333D

 49 51  0     0  0  0  0  0  0999 V2000
   -4.8502   -2.5167    0.1013 O   0  0  0  0  0  0  0  0  0  0  0  0
   -4.7753    2.2717    0.1645 O   0  0  0  0  0  0  0  0  0  0  0  0
   -6.1988   -0.1026    0.2591 O   0  0  0  0  0  0  0  0  0  0  0  0
   -0.6584   -0.1824   -0.2429 N   0  0  0  0  0  0  0  0  0  0  0  0
    3.4047    0.2503   -2.0331 N   0  0  0  0  0  0  0  0  0  0  0  0
    5.5303   -0.2618   -1.2707 N   0  0  0  0  0  0  0  0  0  0  0  0
    6.0245   -0.3970    1.0824 N   0  0  0  0  0  0  0  0  0  0  0  0
    4.3800   -0.0165    2.6786 N   0  0  0  0  0  0  0  0  0  0  0  0
    7.6915   -0.7812   -0.5164 N   0  0  0  0  0  0  0  0  0  0  0  0
    1.5943    0.6702   -0.4900 C   0  0  0  0  0  0  0  0  0  0  0  0
    2.4626    0.4554    0.5659 C   0  0  0  0  0  0  0  0  0  0  0  0
    0.1578    1.0120   -0.2993 C   0  0  0  0  0  0  0  0  0  0  0  0
    3.8039    0.1378    0.3062 C   0  0  0  0  0  0  0  0  0  0  0  0
   -2.0361   -0.1625   -0.1181 C   0  0  0  0  0  0  0  0  0  0  0  0
    4.2521    0.0408   -1.0164 C   0  0  0  0  0  0  0  0  0  0  0  0
    2.1128    0.5562   -1.7625 C   0  0  0  0  0  0  0  0  0  0  0  0
    1.8836    0.5835    1.9420 C   0  0  0  0  0  0  0  0  0  0  0  0
    4.7368   -0.0919    1.3143 C   0  0  0  0  0  0  0  0  0  0  0  0
   -2.7385    1.0555   -0.0368 C   0  0  0  0  0  0  0  0  0  0  0  0
   -2.7763   -1.3598   -0.0687 C   0  0  0  0  0  0  0  0  0  0  0  0
   -4.1653   -1.3398    0.0572 C   0  0  0  0  0  0  0  0  0  0  0  0
   -4.1276    1.0756    0.0890 C   0  0  0  0  0  0  0  0  0  0  0  0
   -4.8409   -0.1221    0.1361 C   0  0  0  0  0  0  0  0  0  0  0  0
    6.3484   -0.4645   -0.2166 C   0  0  0  0  0  0  0  0  0  0  0  0
   -5.2897   -3.0577   -1.1429 C   0  0  0  0  0  0  0  0  0  0  0  0
   -5.1974    2.8588   -1.0648 C   0  0  0  0  0  0  0  0  0  0  0  0
   -6.7285   -0.1117    1.5827 C   0  0  0  0  0  0  0  0  0  0  0  0
   -0.0026    1.6776    0.5561 H   0  0  0  0  0  0  0  0  0  0  0  0
   -0.1570    1.6114   -1.1659 H   0  0  0  0  0  0  0  0  0  0  0  0
   -0.2047   -1.0889   -0.2833 H   0  0  0  0  0  0  0  0  0  0  0  0
    1.4965    0.7070   -2.6437 H   0  0  0  0  0  0  0  0  0  0  0  0
    2.1805    1.5287    2.4065 H   0  0  0  0  0  0  0  0  0  0  0  0
    0.7926    0.5580    1.9855 H   0  0  0  0  0  0  0  0  0  0  0  0
    2.1253   -0.2828    2.5646 H   0  0  0  0  0  0  0  0  0  0  0  0
   -2.2185    2.0097   -0.0697 H   0  0  0  0  0  0  0  0  0  0  0  0
   -2.2585   -2.3155   -0.1287 H   0  0  0  0  0  0  0  0  0  0  0  0
    3.9429    0.8432    2.9844 H   0  0  0  0  0  0  0  0  0  0  0  0
    5.1091   -0.3317    3.3110 H   0  0  0  0  0  0  0  0  0  0  0  0
    7.9840   -0.8427   -1.4819 H   0  0  0  0  0  0  0  0  0  0  0  0
    8.3446   -0.9414    0.2380 H   0  0  0  0  0  0  0  0  0  0  0  0
   -5.9709   -2.3641   -1.6459 H   0  0  0  0  0  0  0  0  0  0  0  0
   -5.8256   -3.9892   -0.9412 H   0  0  0  0  0  0  0  0  0  0  0  0
   -4.4339   -3.2788   -1.7886 H   0  0  0  0  0  0  0  0  0  0  0  0
   -4.3348    3.0696   -1.7049 H   0  0  0  0  0  0  0  0  0  0  0  0
   -5.7037    3.8011   -0.8384 H   0  0  0  0  0  0  0  0  0  0  0  0
   -5.8999    2.2004   -1.5854 H   0  0  0  0  0  0  0  0  0  0  0  0
   -6.4262   -1.0204    2.1126 H   0  0  0  0  0  0  0  0  0  0  0  0
   -7.8196   -0.0939    1.5148 H   0  0  0  0  0  0  0  0  0  0  0  0
   -6.3984    0.7731    2.1362 H   0  0  0  0  0  0  0  0  0  0  0  0
  1 21  1  0  0  0  0
  1 25  1  0  0  0  0
  2 22  1  0  0  0  0
  2 26  1  0  0  0  0
  3 23  1  0  0  0  0
  3 27  1  0  0  0  0
  4 12  1  0  0  0  0
  4 14  1  0  0  0  0
  4 30  1  0  0  0  0
  5 15  2  0  0  0  0
  5 16  1  0  0  0  0
  6 15  1  0  0  0  0
  6 24  2  0  0  0  0
  7 18  2  0  0  0  0
  7 24  1  0  0  0  0
  8 18  1  0  0  0  0
  8 37  1  0  0  0  0
  8 38  1  0  0  0  0
  9 24  1  0  0  0  0
  9 39  1  0  0  0  0
  9 40  1  0  0  0  0
 10 11  1  0  0  0  0
 10 12  1  0  0  0  0
 10 16  2  0  0  0  0
 11 13  2  0  0  0  0
 11 17  1  0  0  0  0
 12 28  1  0  0  0  0
 12 29  1  0  0  0  0
 13 15  1  0  0  0  0
 13 18  1  0  0  0  0
 14 19  2  0  0  0  0
 14 20  1  0  0  0  0
 16 31  1  0  0  0  0
 17 32  1  0  0  0  0
 17 33  1  0  0  0  0
 17 34  1  0  0  0  0
 19 22  1  0  0  0  0
 19 35  1  0  0  0  0
 20 21  2  0  0  0  0
 20 36  1  0  0  0  0
 21 23  1  0  0  0  0
 22 23  2  0  0  0  0
 25 41  1  0  0  0  0
 25 42  1  0  0  0  0
 25 43  1  0  0  0  0
 26 44  1  0  0  0  0
 26 45  1  0  0  0  0
 26 46  1  0  0  0  0
 27 47  1  0  0  0  0
 27 48  1  0  0  0  0
 27 49  1  0  0  0  0
M  END
> <PUBCHEM_COMPOUND_CID>
456204

> <PUBCHEM_CONFORMER_RMSD>
0.8

> <PUBCHEM_CONFORMER_DIVERSEORDER>
2
25
36
26
43
35
29
34
11
33
6
45
12
32
22
41
19
38
40
46
4
13
23
37
28
3
47
20
8
31
5
16
42
39
18
44
1
7
27
24
15
17
48
9
30
21
14
10

> <PUBCHEM_MMFF94_PARTIAL_CHARGES>
34
1 -0.36
10 -0.14
11 -0.14
12 0.51
14 0.1
15 0.62
16 0.16
17 0.14
18 0.41
19 -0.15
2 -0.36
20 -0.15
21 0.08
22 0.08
23 0.08
24 0.72
25 0.28
26 0.28
27 0.28
3 -0.36
30 0.4
31 0.15
35 0.15
36 0.15
37 0.4
38 0.4
39 0.4
4 -0.87
40 0.4
5 -0.62
6 -0.62
7 -0.62
8 -0.9
9 -0.9

> <PUBCHEM_EFFECTIVE_ROTOR_COUNT>
6

> <PUBCHEM_PHARMACOPHORE_FEATURES>
11
1 1 acceptor
1 2 acceptor
1 3 acceptor
1 4 cation
1 4 donor
1 8 donor
1 9 donor
4 6 7 9 24 cation
6 14 19 20 21 22 23 rings
6 5 10 11 13 15 16 rings
6 6 7 13 15 18 24 rings

> <PUBCHEM_HEAVY_ATOM_COUNT>
27

> <PUBCHEM_ATOM_DEF_STEREO_COUNT>
0

> <PUBCHEM_ATOM_UDEF_STEREO_COUNT>
0

> <PUBCHEM_BOND_DEF_STEREO_COUNT>
0

> <PUBCHEM_BOND_UDEF_STEREO_COUNT>
0

> <PUBCHEM_ISOTOPIC_ATOM_COUNT>
0

> <PUBCHEM_COMPONENT_COUNT>
1

> <PUBCHEM_CACTVS_TAUTO_COUNT>
12

> <PUBCHEM_CONFORMER_ID>
0006F60C00000002

> <PUBCHEM_MMFF94_ENERGY>
146.5531

> <PUBCHEM_FEATURE_SELFOVERLAP>
55.866

> <PUBCHEM_SHAPE_FINGERPRINT>
10 15 17346594210147303730
10299344 5 17530969072492722920
10319926 262 18202275931275682715
11089746 13 12463562989892536658
11524674 6 17132117961722652783
11545043 162 18201716279893905481
11796584 16 18342178822008304870
12166972 35 18113623412424507196
12236239 1 17748830687598534004
12596602 18 18410007763039898024
12616971 3 17240485792784261773
13782708 43 17988358273143497831
14294032 229 18261951831492402877
15021287 119 17167870746520071333
15183329 4 17385437739374086774
15188451 53 18130218389252492823
15348495 7 17632292431962483659
15419008 47 17775004561761060096
15475509 35 18199740368349815306
15799311 1 16370736902277803123
16991971 28 13841643495538939544
17844677 252 18412547643015455633
17857418 61 17967808370792165523
18927931 339 18410292541162924655
19489759 90 18413670214796845215
20645477 70 15285350721758444272
21033648 29 17346304986490617321
21315763 178 17603583002619700976
21623969 137 16487260992795044254
21792961 116 17274827892871505604
221357 26 15285352929582507782
23081809 10 17530681000810398232
23522609 53 17314533460156682156
23559900 14 18202282472347512692
23569914 152 14279019328645634419
23569943 247 16589697947585762864
3004659 81 18113620101447144884
3178227 256 16773798100541070694
397830 11 17702654600676969370
4073 2 17275102872692126518
497634 4 16153430567442807203
5104073 3 18198069273366583073
5385378 56 18129677283592487307
559249 180 18187645778312163085

> <PUBCHEM_SHAPE_MULTIPOLES>
508.15
19.58
2
1.66
5.49
0.38
-0.48
4.09
-1.41
-5.7
0.75
1.91
-0.11
-0.04

> <PUBCHEM_SHAPE_SELFOVERLAP>
1100.152

> <PUBCHEM_SHAPE_VOLUME>
278.2

> <PUBCHEM_COORDINATE_TYPE>
2
5
10

$$$$
