65702
  -OEChem-09252021333D

 35 35  0     1  0  0  0  0  0999 V2000
    4.0899   -2.2326   -1.7406 Cl  0  0  0  0  0  0  0  0  0  0  0  0
   -3.1780   -2.5111    2.3166 Cl  0  0  0  0  0  0  0  0  0  0  0  0
   -4.1240    1.2975   -2.0771 Cl  0  0  0  0  0  0  0  0  0  0  0  0
    0.3333    0.5346   -0.3402 P   0  0  1  0  0  0  0  0  0  0  0  0
   -0.1866    1.7783    0.5794 O   0  0  0  0  0  0  0  0  0  0  0  0
    0.7888    1.0346   -1.6901 O   0  0  0  0  0  0  0  0  0  0  0  0
    1.5191   -0.1872    0.5916 N   0  0  2  0  0  0  0  0  0  0  0  0
   -0.9528   -0.5129   -0.3797 N   0  0  0  0  0  0  0  0  0  0  0  0
    2.4856    0.7286    1.2178 C   0  0  0  0  0  0  0  0  0  0  0  0
    1.7646    1.8348    1.9983 C   0  0  0  0  0  0  0  0  0  0  0  0
    0.8088    2.6382    1.1219 C   0  0  0  0  0  0  0  0  0  0  0  0
    2.2291   -1.3294    0.0142 C   0  0  0  0  0  0  0  0  0  0  0  0
   -1.5579   -0.8551    0.9056 C   0  0  0  0  0  0  0  0  0  0  0  0
   -1.9992   -0.2280   -1.3593 C   0  0  0  0  0  0  0  0  0  0  0  0
    3.2354   -0.8479   -1.0193 C   0  0  0  0  0  0  0  0  0  0  0  0
   -2.4214   -2.0985    0.7593 C   0  0  0  0  0  0  0  0  0  0  0  0
   -2.8348    0.9561   -0.8984 C   0  0  0  0  0  0  0  0  0  0  0  0
    3.1417    0.1880    1.9100 H   0  0  0  0  0  0  0  0  0  0  0  0
    3.1067    1.2350    0.4717 H   0  0  0  0  0  0  0  0  0  0  0  0
    2.5049    2.5078    2.4450 H   0  0  0  0  0  0  0  0  0  0  0  0
    1.1997    1.3746    2.8189 H   0  0  0  0  0  0  0  0  0  0  0  0
    0.3046    3.4056    1.7166 H   0  0  0  0  0  0  0  0  0  0  0  0
    1.3392    3.1350    0.3027 H   0  0  0  0  0  0  0  0  0  0  0  0
    1.5092   -2.0198   -0.4406 H   0  0  0  0  0  0  0  0  0  0  0  0
    2.7321   -1.8935    0.8095 H   0  0  0  0  0  0  0  0  0  0  0  0
   -2.0913   -0.0244    1.3778 H   0  0  0  0  0  0  0  0  0  0  0  0
   -0.7568   -1.1065    1.6122 H   0  0  0  0  0  0  0  0  0  0  0  0
   -2.6135   -1.1025   -1.5929 H   0  0  0  0  0  0  0  0  0  0  0  0
   -1.5255    0.0164   -2.3188 H   0  0  0  0  0  0  0  0  0  0  0  0
    2.7753   -0.3116   -1.8492 H   0  0  0  0  0  0  0  0  0  0  0  0
    4.0304   -0.2311   -0.5971 H   0  0  0  0  0  0  0  0  0  0  0  0
   -3.2664   -1.9712    0.0820 H   0  0  0  0  0  0  0  0  0  0  0  0
   -1.8340   -2.9630    0.4339 H   0  0  0  0  0  0  0  0  0  0  0  0
   -3.3644    0.7866    0.0396 H   0  0  0  0  0  0  0  0  0  0  0  0
   -2.2472    1.8728   -0.8156 H   0  0  0  0  0  0  0  0  0  0  0  0
  1 15  1  0  0  0  0
  2 16  1  0  0  0  0
  3 17  1  0  0  0  0
  4  5  1  0  0  0  0
  4  6  2  0  0  0  0
  4  7  1  0  0  0  0
  4  8  1  0  0  0  0
  5 11  1  0  0  0  0
  7  9  1  0  0  0  0
  7 12  1  0  0  0  0
  8 13  1  0  0  0  0
  8 14  1  0  0  0  0
  9 10  1  0  0  0  0
  9 18  1  0  0  0  0
  9 19  1  0  0  0  0
 10 11  1  0  0  0  0
 10 20  1  0  0  0  0
 10 21  1  0  0  0  0
 11 22  1  0  0  0  0
 11 23  1  0  0  0  0
 12 15  1  0  0  0  0
 12 24  1  0  0  0  0
 12 25  1  0  0  0  0
 13 16  1  0  0  0  0
 13 26  1  0  0  0  0
 13 27  1  0  0  0  0
 14 17  1  0  0  0  0
 14 28  1  0  0  0  0
 14 29  1  0  0  0  0
 15 30  1  0  0  0  0
 15 31  1  0  0  0  0
 16 32  1  0  0  0  0
 16 33  1  0  0  0  0
 17 34  1  0  0  0  0
 17 35  1  0  0  0  0
M  END
> <PUBCHEM_COMPOUND_CID>
65702

> <PUBCHEM_CONFORMER_RMSD>
0.8

> <PUBCHEM_CONFORMER_DIVERSEORDER>
1
61
3
7
33
8
41
71
27
15
22
74
29
5
37
9
18
67
48
44
77
23
78
84
55
81
21
17
20
16
68
46
51
65
24
85
64
19
60
83
42
79
31
6
82
39
13
76
53
12
14
26
59
57
66
36
32
49
62
80
58
50
69
11
4
35
34
73
47
54
43
28
72
56
75
63
45
38
2
70
40
52
10
25
30

> <PUBCHEM_MMFF94_PARTIAL_CHARGES>
16
1 -0.29
11 0.28
12 0.27
13 0.27
14 0.27
15 0.29
16 0.29
17 0.29
2 -0.29
3 -0.29
4 1.51
5 -0.55
6 -0.7
7 -0.81
8 -0.81
9 0.27

> <PUBCHEM_EFFECTIVE_ROTOR_COUNT>
8

> <PUBCHEM_PHARMACOPHORE_FEATURES>
1
6 4 5 7 9 10 11 rings

> <PUBCHEM_HEAVY_ATOM_COUNT>
17

> <PUBCHEM_ATOM_DEF_STEREO_COUNT>
0

> <PUBCHEM_ATOM_UDEF_STEREO_COUNT>
1

> <PUBCHEM_BOND_DEF_STEREO_COUNT>
0

> <PUBCHEM_BOND_UDEF_STEREO_COUNT>
0

> <PUBCHEM_ISOTOPIC_ATOM_COUNT>
0

> <PUBCHEM_COMPONENT_COUNT>
1

> <PUBCHEM_CACTVS_TAUTO_COUNT>
1

> <PUBCHEM_CONFORMER_ID>
000100A600000001

> <PUBCHEM_MMFF94_ENERGY>
13.3042

> <PUBCHEM_FEATURE_SELFOVERLAP>
5.074

> <PUBCHEM_SHAPE_FINGERPRINT>
10764073 3 14967921487118168211
12553582 1 17703242728166945654
12892183 10 12462996664079354326
14115302 16 17678162816065185074
14178342 30 17387387203596628963
16945 1 18114738222730526836
18186145 218 18266158579458042053
18915476 22 18058161911246249769
19049666 15 18336814356067625219
20600515 1 17896016824614895492
20645477 70 17916566717990469766
20671657 53 17417799596146735884
20871999 31 17676501535262702302
21061003 4 18201177497542708067
21069387 34 17418081110120991583
23419403 2 18341059600168562512
23526113 38 18411693283809656430
23557571 272 18114175397252081349
23559900 14 18261950753043615046
2748010 2 18338791320602370275
31174 14 18056210295524382051
57003041 14 18189921840164397715
576247 118 18058752233506432686
5845 1 12718894375565008052
6049 1 18337676424607546435
621550 5 18046098031212344955
633830 44 18194373664472828797
6992083 37 16415208814621231350
7615 1 15769776887702972947
81228 2 17912927184606106120
88987 49 17458891717415845351
9981440 41 17337830127427351937

> <PUBCHEM_SHAPE_MULTIPOLES>
337.61
6.49
2.87
2.34
0.31
0.39
0.12
3.07
-3.08
0.43
1.32
0.72
0.06
4.14

> <PUBCHEM_SHAPE_SELFOVERLAP>
610.341

> <PUBCHEM_SHAPE_VOLUME>
219.6

> <PUBCHEM_COORDINATE_TYPE>
2
5
10

$$$$
