89062150
  -OEChem-09252021333D

 58 61  0     1  0  0  0  0  0999 V2000
    5.1216   -0.8085    1.2665 S   0  0  0  0  0  0  0  0  0  0  0  0
   -2.3494    0.1711    1.6345 O   0  0  0  0  0  0  0  0  0  0  0  0
   -0.5445    2.8068    0.2234 O   0  0  0  0  0  0  0  0  0  0  0  0
   -5.7548   -2.7846   -1.5539 O   0  0  0  0  0  0  0  0  0  0  0  0
    6.1653   -1.2030   -2.4281 O   0  0  0  0  0  0  0  0  0  0  0  0
    7.2992   -2.1101    1.9558 O   0  0  0  0  0  0  0  0  0  0  0  0
    6.8940   -1.7628   -0.3060 N   0  0  0  0  0  0  0  0  0  0  0  0
   -2.8652    2.2870    0.4496 C   0  0  1  0  0  0  0  0  0  0  0  0
   -4.0805    1.6317   -0.2347 C   0  0  0  0  0  0  0  0  0  0  0  0
   -2.6309    1.5661    1.7878 C   0  0  0  0  0  0  0  0  0  0  0  0
   -4.0649    0.1334   -0.0990 C   0  0  0  0  0  0  0  0  0  0  0  0
   -1.6169    2.1829   -0.4486 C   0  0  0  0  0  0  0  0  0  0  0  0
   -3.1596    3.7731    0.7085 C   0  0  0  0  0  0  0  0  0  0  0  0
   -3.2257   -0.5023    0.8241 C   0  0  0  0  0  0  0  0  0  0  0  0
   -4.9212   -0.6450   -0.8896 C   0  0  0  0  0  0  0  0  0  0  0  0
   -3.2144   -1.8959    0.9250 C   0  0  0  0  0  0  0  0  0  0  0  0
   -4.0632   -2.6608    0.1266 C   0  0  0  0  0  0  0  0  0  0  0  0
   -4.9192   -2.0357   -0.7775 C   0  0  0  0  0  0  0  0  0  0  0  0
   -5.8565   -0.0002   -1.8657 C   0  0  0  0  0  0  0  0  0  0  0  0
   -2.2953   -2.5702    1.8955 C   0  0  0  0  0  0  0  0  0  0  0  0
   -4.0607   -4.1525    0.2365 C   0  0  0  0  0  0  0  0  0  0  0  0
    0.7211    2.3387   -0.0425 C   0  0  0  0  0  0  0  0  0  0  0  0
    1.0154    1.7958   -1.2932 C   0  0  0  0  0  0  0  0  0  0  0  0
    1.7100    2.4059    0.9389 C   0  0  0  0  0  0  0  0  0  0  0  0
    3.2877    1.3877   -0.5812 C   0  0  0  0  0  0  0  0  0  0  0  0
    4.6596    0.8792   -0.8686 C   0  0  0  0  0  0  0  0  0  0  0  0
    2.2986    1.3204   -1.5626 C   0  0  0  0  0  0  0  0  0  0  0  0
    2.9933    1.9304    0.6695 C   0  0  0  0  0  0  0  0  0  0  0  0
    4.8182   -0.5973   -0.5145 C   0  0  1  0  0  0  0  0  0  0  0  0
    6.0138   -1.2069   -1.2111 C   0  0  0  0  0  0  0  0  0  0  0  0
    6.6251   -1.6745    1.0346 C   0  0  0  0  0  0  0  0  0  0  0  0
   -4.1020    1.9295   -1.2899 H   0  0  0  0  0  0  0  0  0  0  0  0
   -5.0063    1.9932    0.2325 H   0  0  0  0  0  0  0  0  0  0  0  0
   -1.7846    2.0050    2.3287 H   0  0  0  0  0  0  0  0  0  0  0  0
   -3.5021    1.6696    2.4491 H   0  0  0  0  0  0  0  0  0  0  0  0
   -1.7909    2.7009   -1.4002 H   0  0  0  0  0  0  0  0  0  0  0  0
   -1.4065    1.1281   -0.6645 H   0  0  0  0  0  0  0  0  0  0  0  0
   -2.3424    4.2663    1.2461 H   0  0  0  0  0  0  0  0  0  0  0  0
   -4.0630    3.8953    1.3172 H   0  0  0  0  0  0  0  0  0  0  0  0
   -3.3197    4.3133   -0.2314 H   0  0  0  0  0  0  0  0  0  0  0  0
   -5.2997    0.3608   -2.7367 H   0  0  0  0  0  0  0  0  0  0  0  0
   -6.6343   -0.6796   -2.2278 H   0  0  0  0  0  0  0  0  0  0  0  0
   -6.3876    0.8390   -1.4041 H   0  0  0  0  0  0  0  0  0  0  0  0
   -1.7960   -1.8750    2.5773 H   0  0  0  0  0  0  0  0  0  0  0  0
   -2.8495   -3.2635    2.5379 H   0  0  0  0  0  0  0  0  0  0  0  0
   -1.5081   -3.1115    1.3599 H   0  0  0  0  0  0  0  0  0  0  0  0
   -4.9260   -4.4877    0.8178 H   0  0  0  0  0  0  0  0  0  0  0  0
   -4.0919   -4.6185   -0.7551 H   0  0  0  0  0  0  0  0  0  0  0  0
   -3.1616   -4.5627    0.7028 H   0  0  0  0  0  0  0  0  0  0  0  0
   -5.8784   -3.6687   -1.1743 H   0  0  0  0  0  0  0  0  0  0  0  0
    0.2818    1.7497   -2.0925 H   0  0  0  0  0  0  0  0  0  0  0  0
    1.4864    2.8298    1.9141 H   0  0  0  0  0  0  0  0  0  0  0  0
    4.8615    1.0290   -1.9385 H   0  0  0  0  0  0  0  0  0  0  0  0
    5.4143    1.5008   -0.3668 H   0  0  0  0  0  0  0  0  0  0  0  0
    2.5161    0.9027   -2.5422 H   0  0  0  0  0  0  0  0  0  0  0  0
    3.7542    2.0036    1.4415 H   0  0  0  0  0  0  0  0  0  0  0  0
    3.9385   -1.1883   -0.7939 H   0  0  0  0  0  0  0  0  0  0  0  0
    7.7389   -2.2219   -0.6306 H   0  0  0  0  0  0  0  0  0  0  0  0
  1 29  1  0  0  0  0
  1 31  1  0  0  0  0
  2 10  1  0  0  0  0
  2 14  1  0  0  0  0
  3 12  1  0  0  0  0
  3 22  1  0  0  0  0
  4 18  1  0  0  0  0
  4 50  1  0  0  0  0
  5 30  2  0  0  0  0
  6 31  2  0  0  0  0
  7 30  1  0  0  0  0
  7 31  1  0  0  0  0
  7 58  1  0  0  0  0
  8  9  1  0  0  0  0
  8 10  1  0  0  0  0
  8 12  1  0  0  0  0
  8 13  1  0  0  0  0
  9 11  1  0  0  0  0
  9 32  1  0  0  0  0
  9 33  1  0  0  0  0
 10 34  1  0  0  0  0
 10 35  1  0  0  0  0
 11 14  2  0  0  0  0
 11 15  1  0  0  0  0
 12 36  1  0  0  0  0
 12 37  1  0  0  0  0
 13 38  1  0  0  0  0
 13 39  1  0  0  0  0
 13 40  1  0  0  0  0
 14 16  1  0  0  0  0
 15 18  2  0  0  0  0
 15 19  1  0  0  0  0
 16 17  2  0  0  0  0
 16 20  1  0  0  0  0
 17 18  1  0  0  0  0
 17 21  1  0  0  0  0
 19 41  1  0  0  0  0
 19 42  1  0  0  0  0
 19 43  1  0  0  0  0
 20 44  1  0  0  0  0
 20 45  1  0  0  0  0
 20 46  1  0  0  0  0
 21 47  1  0  0  0  0
 21 48  1  0  0  0  0
 21 49  1  0  0  0  0
 22 23  2  0  0  0  0
 22 24  1  0  0  0  0
 23 27  1  0  0  0  0
 23 51  1  0  0  0  0
 24 28  2  0  0  0  0
 24 52  1  0  0  0  0
 25 26  1  0  0  0  0
 25 27  2  0  0  0  0
 25 28  1  0  0  0  0
 26 29  1  0  0  0  0
 26 53  1  0  0  0  0
 26 54  1  0  0  0  0
 27 55  1  0  0  0  0
 28 56  1  0  0  0  0
 29 30  1  0  0  0  0
 29 57  1  0  0  0  0
M  END
> <PUBCHEM_COMPOUND_CID>
89062150

> <PUBCHEM_CONFORMER_RMSD>
1.2

> <PUBCHEM_CONFORMER_DIVERSEORDER>
1
149
429
128
36
125
438
497
472
57
499
487
16
132
352
4
123
346
234
364
295
392
17
216
91
283
368
494
171
138
49
476
282
277
471
10
40
165
404
181
189
225
468
354
54
245
46
5
153
330
59
73
489
241
100
323
475
202
179
272
447
340
19
51
465
435
265
79
176
201
459
319
286
481
13
107
390
28
290
26
136
2
15
155
44
334
424
183
301
27
423
213
87
477
214
3
449
504
161
312
115
258
470
76
14
156
274
302
231
304
80
208
432
103
113
372
89
525
81
9
227
397
379
94
217
361
119
391
62
31
287
56
244
311
190
452
279
20
18
358
126
61
102
39
488
345
66
167
211
32
467
243
82
21
228
34
178

> <PUBCHEM_MMFF94_PARTIAL_CHARGES>
35
1 -0.37
10 0.28
11 -0.14
12 0.28
14 0.08
15 -0.14
16 -0.14
17 -0.14
18 0.08
19 0.14
2 -0.36
20 0.14
21 0.14
22 0.08
23 -0.15
24 -0.15
25 -0.14
26 0.14
27 -0.15
28 -0.15
29 0.29
3 -0.36
30 0.57
31 0.77
4 -0.53
5 -0.57
50 0.45
51 0.15
52 0.15
55 0.15
56 0.15
58 0.37
6 -0.57
7 -0.49
9 0.14

> <PUBCHEM_EFFECTIVE_ROTOR_COUNT>
6.4

> <PUBCHEM_PHARMACOPHORE_FEATURES>
9
1 2 acceptor
1 3 acceptor
1 4 donor
1 5 acceptor
1 7 donor
5 1 7 29 30 31 rings
6 11 14 15 16 17 18 rings
6 2 8 9 10 11 14 rings
6 22 23 24 25 27 28 rings

> <PUBCHEM_HEAVY_ATOM_COUNT>
31

> <PUBCHEM_ATOM_DEF_STEREO_COUNT>
0

> <PUBCHEM_ATOM_UDEF_STEREO_COUNT>
2

> <PUBCHEM_BOND_DEF_STEREO_COUNT>
0

> <PUBCHEM_BOND_UDEF_STEREO_COUNT>
0

> <PUBCHEM_ISOTOPIC_ATOM_COUNT>
0

> <PUBCHEM_COMPONENT_COUNT>
1

> <PUBCHEM_CACTVS_TAUTO_COUNT>
45

> <PUBCHEM_CONFORMER_ID>
054EFB0600000001

> <PUBCHEM_MMFF94_ENERGY>
103.0264

> <PUBCHEM_FEATURE_SELFOVERLAP>
45.701

> <PUBCHEM_SHAPE_FINGERPRINT>
10369192 42 12757157848695240409
10483366 6 18335408038479659245
10622 236 18261957448206422726
10930396 42 13901916605354190227
11135609 201 9583511010471542380
11211813 140 17750216038174754154
11513181 2 18052537664589616550
11796584 16 18339367340869702324
12373685 5 18040431114761935944
12596602 18 15267337388748894294
13761468 95 16517356679479966101
13782708 43 17988924500225043776
14211702 104 18412261766055501296
14347329 18 8790879658435557764
14659021 117 18339357470554827681
14848178 5 18341050812776491548
14866123 147 18341341033235188105
14910302 57 18187633739250378941
14950920 106 13973145145273758901
15001296 14 18261386814619721610
15183329 4 18113339691812487354
15250474 111 18260832553786060186
15510800 12 18202007624716349950
15530120 55 17024324121756759094
15684393 108 17313965124155794310
17627616 140 17969780770067293938
17857418 61 18334014969662488168
18393751 57 10159711209417624549
19309040 13 12180111099205919083
19377110 9 12607399988267292324
19958102 18 17968083266179574927
20028762 73 18342455920592975014
20691028 202 8285938855747587663
21315763 87 17275382101854387846
21458453 9 18060133263545570898
21703447 108 18198054979199171792
23428019 142 17821734948297020970
23559900 14 18338790243056748217
23569914 152 13264608784852944832
23572383 38 18194958767286722523
25122255 55 18341615931719896668
316301 35 18339922718494918568
32027 91 18411414055106480193
3383291 50 18413387627466497911
397830 11 18130775751843741896
437795 139 18411696608409970410
4394409 98 18188479195178513639
44062 13 18410580573742417041
4435113 14 17701276741262686790
463206 1 18335708264407644145
484985 159 18336260159426637885
49967989 163 18189642526216087870
5085150 59 18270955752694871671
508706 21 18340219496017988574
5104073 3 17846504759074685049
5718773 13 18272644684227754831
57724786 102 10666042905928755121

> <PUBCHEM_SHAPE_MULTIPOLES>
607.49
18.13
4.48
1.83
24.95
0.74
0.13
15.98
3.4
-4.35
-0.96
0.76
0.53
-1.4

> <PUBCHEM_SHAPE_SELFOVERLAP>
1305.851

> <PUBCHEM_SHAPE_VOLUME>
337.7

> <PUBCHEM_COORDINATE_TYPE>
2
5
10

$$$$
