481696
  -OEChem-09252021343D

 45 49  0     1  0  0  0  0  0999 V2000
    2.5975   -3.2972    0.0476 F   0  0  0  0  0  0  0  0  0  0  0  0
   -3.4406    2.0962   -1.1138 F   0  0  0  0  0  0  0  0  0  0  0  0
   -0.9102    5.8267    0.3243 F   0  0  0  0  0  0  0  0  0  0  0  0
   -2.4277   -3.7148   -0.0104 O   0  0  0  0  0  0  0  0  0  0  0  0
   -4.8946   -3.0417    0.5240 O   0  0  0  0  0  0  0  0  0  0  0  0
   -5.5537   -1.1634   -0.6018 O   0  0  0  0  0  0  0  0  0  0  0  0
    3.0884   -0.5993    0.0733 N   0  0  0  0  0  0  0  0  0  0  0  0
    7.2757    0.4087   -0.8963 N   0  0  0  0  0  0  0  0  0  0  0  0
    0.7472   -0.1725    0.0732 N   0  0  0  0  0  0  0  0  0  0  0  0
   -1.6410    0.3063    0.0716 N   0  0  0  0  0  0  0  0  0  0  0  0
    5.3169   -0.4254    0.5878 C   0  0  2  0  0  0  0  0  0  0  0  0
    4.8657    0.8464   -0.0398 C   0  0  1  0  0  0  0  0  0  0  0  0
    5.8805   -0.0122   -0.7447 C   0  0  0  0  0  0  0  0  0  0  0  0
    4.1465   -1.3554    0.6810 C   0  0  0  0  0  0  0  0  0  0  0  0
    3.4046    0.7353   -0.3501 C   0  0  0  0  0  0  0  0  0  0  0  0
    1.7542   -1.0756    0.0673 C   0  0  0  0  0  0  0  0  0  0  0  0
    1.5670   -2.4424    0.0543 C   0  0  0  0  0  0  0  0  0  0  0  0
   -0.5371   -0.6216    0.0769 C   0  0  0  0  0  0  0  0  0  0  0  0
    0.2630   -2.9118    0.0407 C   0  0  0  0  0  0  0  0  0  0  0  0
   -0.7985   -2.0019    0.0467 C   0  0  0  0  0  0  0  0  0  0  0  0
   -2.1876   -2.5141    0.0020 C   0  0  0  0  0  0  0  0  0  0  0  0
   -2.9305   -0.2147    0.0039 C   0  0  0  0  0  0  0  0  0  0  0  0
   -3.2717   -1.5080   -0.0309 C   0  0  0  0  0  0  0  0  0  0  0  0
   -1.4543    1.7287    0.1352 C   0  0  0  0  0  0  0  0  0  0  0  0
   -2.3751    2.5923   -0.4690 C   0  0  0  0  0  0  0  0  0  0  0  0
   -0.3480    2.2647    0.8043 C   0  0  0  0  0  0  0  0  0  0  0  0
   -4.6933   -1.8536   -0.0840 C   0  0  0  0  0  0  0  0  0  0  0  0
   -2.1918    3.9738   -0.4051 C   0  0  0  0  0  0  0  0  0  0  0  0
   -0.1649    3.6458    0.8682 C   0  0  0  0  0  0  0  0  0  0  0  0
   -1.0867    4.5004    0.2636 C   0  0  0  0  0  0  0  0  0  0  0  0
    5.9407   -0.3944    1.4689 H   0  0  0  0  0  0  0  0  0  0  0  0
    5.1661    1.7905    0.3902 H   0  0  0  0  0  0  0  0  0  0  0  0
    5.5266   -0.5647   -1.6115 H   0  0  0  0  0  0  0  0  0  0  0  0
    4.4133   -2.2629    0.1329 H   0  0  0  0  0  0  0  0  0  0  0  0
    3.9308   -1.5927    1.7283 H   0  0  0  0  0  0  0  0  0  0  0  0
    2.8500    1.4851    0.2243 H   0  0  0  0  0  0  0  0  0  0  0  0
    3.2151    0.8822   -1.4185 H   0  0  0  0  0  0  0  0  0  0  0  0
    7.3776    0.9875   -1.7289 H   0  0  0  0  0  0  0  0  0  0  0  0
    7.8720   -0.4046   -1.0427 H   0  0  0  0  0  0  0  0  0  0  0  0
    0.0902   -3.9840    0.0200 H   0  0  0  0  0  0  0  0  0  0  0  0
   -3.7314    0.5065    0.1063 H   0  0  0  0  0  0  0  0  0  0  0  0
    0.3527    1.6609    1.3702 H   0  0  0  0  0  0  0  0  0  0  0  0
   -2.9094    4.6390   -0.8758 H   0  0  0  0  0  0  0  0  0  0  0  0
    0.6848    4.0577    1.4048 H   0  0  0  0  0  0  0  0  0  0  0  0
   -5.8386   -3.3083    0.5089 H   0  0  0  0  0  0  0  0  0  0  0  0
  1 17  1  0  0  0  0
  2 25  1  0  0  0  0
  3 30  1  0  0  0  0
  4 21  2  0  0  0  0
  5 27  1  0  0  0  0
  5 45  1  0  0  0  0
  6 27  2  0  0  0  0
  7 14  1  0  0  0  0
  7 15  1  0  0  0  0
  7 16  1  0  0  0  0
  8 13  1  0  0  0  0
  8 38  1  0  0  0  0
  8 39  1  0  0  0  0
  9 16  1  0  0  0  0
  9 18  2  0  0  0  0
 10 18  1  0  0  0  0
 10 22  1  0  0  0  0
 10 24  1  0  0  0  0
 11 12  1  0  0  0  0
 11 13  1  0  0  0  0
 11 14  1  0  0  0  0
 11 31  1  0  0  0  0
 12 13  1  0  0  0  0
 12 15  1  0  0  0  0
 12 32  1  0  0  0  0
 13 33  1  0  0  0  0
 14 34  1  0  0  0  0
 14 35  1  0  0  0  0
 15 36  1  0  0  0  0
 15 37  1  0  0  0  0
 16 17  2  0  0  0  0
 17 19  1  0  0  0  0
 18 20  1  0  0  0  0
 19 20  2  0  0  0  0
 19 40  1  0  0  0  0
 20 21  1  0  0  0  0
 21 23  1  0  0  0  0
 22 23  2  0  0  0  0
 22 41  1  0  0  0  0
 23 27  1  0  0  0  0
 24 25  2  0  0  0  0
 24 26  1  0  0  0  0
 25 28  1  0  0  0  0
 26 29  2  0  0  0  0
 26 42  1  0  0  0  0
 28 30  2  0  0  0  0
 28 43  1  0  0  0  0
 29 30  1  0  0  0  0
 29 44  1  0  0  0  0
M  END
> <PUBCHEM_COMPOUND_CID>
481696

> <PUBCHEM_CONFORMER_RMSD>
0.8

> <PUBCHEM_CONFORMER_DIVERSEORDER>
1
8
5
10
3
2
6
7
9
4

> <PUBCHEM_MMFF94_PARTIAL_CHARGES>
41
1 -0.19
10 -0.3
11 -0.19
12 -0.19
13 0.06
14 0.46
15 0.46
16 0.41
17 0.19
18 0.41
19 -0.15
2 -0.19
20 0.09
21 0.47
22 -0.05
23 0.03
24 0.1
25 0.19
26 -0.15
27 0.71
28 -0.15
29 -0.15
3 -0.19
30 0.19
31 0.1
32 0.1
33 0.1
38 0.36
39 0.36
4 -0.57
40 0.15
41 0.15
42 0.15
43 0.15
44 0.15
45 0.5
5 -0.65
6 -0.57
7 -0.84
8 -0.88
9 -0.62

> <PUBCHEM_EFFECTIVE_ROTOR_COUNT>
3.8

> <PUBCHEM_PHARMACOPHORE_FEATURES>
13
1 23 anion
1 4 acceptor
1 5 acceptor
1 6 acceptor
1 7 cation
1 8 cation
1 8 donor
3 5 6 27 anion
3 9 10 18 cation
6 10 18 20 21 22 23 rings
6 24 25 26 28 29 30 rings
6 7 11 12 13 14 15 rings
6 9 16 17 18 19 20 rings

> <PUBCHEM_HEAVY_ATOM_COUNT>
30

> <PUBCHEM_ATOM_DEF_STEREO_COUNT>
0

> <PUBCHEM_ATOM_UDEF_STEREO_COUNT>
2

> <PUBCHEM_BOND_DEF_STEREO_COUNT>
0

> <PUBCHEM_BOND_UDEF_STEREO_COUNT>
0

> <PUBCHEM_ISOTOPIC_ATOM_COUNT>
0

> <PUBCHEM_COMPONENT_COUNT>
1

> <PUBCHEM_CACTVS_TAUTO_COUNT>
1

> <PUBCHEM_CONFORMER_ID>
000759A000000001

> <PUBCHEM_MMFF94_ENERGY>
113.1562

> <PUBCHEM_FEATURE_SELFOVERLAP>
66.396

> <PUBCHEM_SHAPE_FINGERPRINT>
10050765 1 18266459803143161926
10411042 1 18194683902212712202
10670039 82 18410020918856814190
10937287 8 17834677089245978360
1100329 8 18194686105715356555
11059845 2 17760056568827951312
11513181 2 17985540044764001790
11578080 2 14187368485209211827
12107183 9 17757260484846794610
12166972 35 17894912996491720228
12553582 1 18339909532755552147
12788726 201 18334009493199612202
13140716 1 18265624362244746842
138480 1 15745005573623828233
14363568 33 17975984477111895721
14394314 77 18411425033385955657
14955137 171 18120665874842496107
15400415 2 17762338012301450736
15419008 47 18060136596403770248
15439362 3 17762612198643845637
15484559 13 14240500645154906038
16087824 20 18411139096692481233
17492 89 18337669690226290858
17974551 9 13846166692131116472
18336668 15 18041562554152801701
18681886 176 18196931291432568802
19319366 153 17476340722674338693
19427546 62 17545883724697168785
19591789 44 18339077223964923105
19611394 137 17899148375291247291
20642791 105 18336252449854956584
21033650 10 18190769487058350278
21049683 271 18044944712618977735
21304253 13 18341338894130081681
21641784 216 18260841396775765076
21796203 349 17830212264767408291
22122407 14 15430330143786656854
23557571 272 18343308058967216222
23558518 356 18118410544359835218
23559900 14 18124590040151816691
24771293 8 17914042359536310712
24771750 20 17830460840626914807
283562 15 18408325462429727890
335352 9 18338795719593588495
3380486 145 18337689529143630161
350125 39 18409448093850373874
469060 322 18339939172060839256
474 4 17330550947622709473
5171179 24 18128238177427221809
532947 4 17835797873904384497
59755656 215 18411985771594925374
6371009 1 17615947933975713920
6677587 24 15438148543143651837
7808743 9 18338237042868700608
9981440 41 17976816493412342809

> <PUBCHEM_SHAPE_MULTIPOLES>
558.03
11.18
6.09
0.78
15.01
7.32
-0.01
-4.46
-2.21
-6.66
0.65
0.2
0.24
0.02

> <PUBCHEM_SHAPE_SELFOVERLAP>
1252.176

> <PUBCHEM_SHAPE_VOLUME>
293.9

> <PUBCHEM_COORDINATE_TYPE>
2
5
10

$$$$
