5251896
  -OEChem-09252021343D

 47 50  0     1  0  0  0  0  0999 V2000
   -3.4901    1.6711    2.2195 O   0  0  0  0  0  0  0  0  0  0  0  0
    2.1261   -1.9190   -0.2602 O   0  0  0  0  0  0  0  0  0  0  0  0
   -0.3309   -1.1425   -0.2171 N   0  0  0  0  0  0  0  0  0  0  0  0
    3.0747    0.1910   -0.3291 N   0  0  0  0  0  0  0  0  0  0  0  0
    5.3663   -1.1686    1.8398 N   0  0  0  0  0  0  0  0  0  0  0  0
   -1.6942   -0.6163   -0.1921 C   0  0  0  0  0  0  0  0  0  0  0  0
   -3.3212    0.8320    1.0858 C   0  0  0  0  0  0  0  0  0  0  0  0
   -3.4130    0.7656   -1.4313 C   0  0  2  0  0  0  0  0  0  0  0  0
   -4.1440   -1.2402   -0.0866 C   0  0  1  0  0  0  0  0  0  0  0  0
   -1.8824    0.2838    1.0470 C   0  0  0  0  0  0  0  0  0  0  0  0
   -1.9752    0.2154   -1.4642 C   0  0  0  0  0  0  0  0  0  0  0  0
   -2.7034   -1.7840   -0.1221 C   0  0  0  0  0  0  0  0  0  0  0  0
   -3.5856    1.6523   -0.1880 C   0  0  0  0  0  0  0  0  0  0  0  0
   -4.3143   -0.3416    1.1484 C   0  0  0  0  0  0  0  0  0  0  0  0
   -4.4030   -0.4097   -1.3556 C   0  0  0  0  0  0  0  0  0  0  0  0
    0.6392   -0.0596   -0.2684 C   0  0  0  0  0  0  0  0  0  0  0  0
    2.0075   -0.6929   -0.2875 C   0  0  0  0  0  0  0  0  0  0  0  0
    4.4627   -0.2555   -0.4571 C   0  0  1  0  0  0  0  0  0  0  0  0
    2.9813    1.6492   -0.3624 C   0  0  0  0  0  0  0  0  0  0  0  0
    5.2129    1.0027   -0.8977 C   0  0  0  0  0  0  0  0  0  0  0  0
    4.4189    2.1329   -0.2483 C   0  0  0  0  0  0  0  0  0  0  0  0
    4.9678   -0.7660    0.8272 C   0  0  0  0  0  0  0  0  0  0  0  0
   -3.6060    1.3533   -2.3357 H   0  0  0  0  0  0  0  0  0  0  0  0
   -4.8530   -2.0742   -0.0387 H   0  0  0  0  0  0  0  0  0  0  0  0
   -1.6680   -0.2664    1.9735 H   0  0  0  0  0  0  0  0  0  0  0  0
   -1.2197    1.1564    1.0559 H   0  0  0  0  0  0  0  0  0  0  0  0
   -1.8344   -0.3962   -2.3650 H   0  0  0  0  0  0  0  0  0  0  0  0
   -1.3140    1.0830   -1.5586 H   0  0  0  0  0  0  0  0  0  0  0  0
   -2.5203   -2.3960    0.7711 H   0  0  0  0  0  0  0  0  0  0  0  0
   -2.5842   -2.4475   -0.9890 H   0  0  0  0  0  0  0  0  0  0  0  0
   -2.9051    2.5125   -0.2322 H   0  0  0  0  0  0  0  0  0  0  0  0
   -4.5974    2.0777   -0.1621 H   0  0  0  0  0  0  0  0  0  0  0  0
   -5.3438    0.0348    1.2076 H   0  0  0  0  0  0  0  0  0  0  0  0
   -4.1567   -0.9191    2.0685 H   0  0  0  0  0  0  0  0  0  0  0  0
   -5.4326   -0.0315   -1.3512 H   0  0  0  0  0  0  0  0  0  0  0  0
   -4.3002   -1.0434   -2.2451 H   0  0  0  0  0  0  0  0  0  0  0  0
   -0.2148   -1.7437   -1.0332 H   0  0  0  0  0  0  0  0  0  0  0  0
   -4.4075    1.9935    2.2211 H   0  0  0  0  0  0  0  0  0  0  0  0
    0.5686    0.5459   -1.1745 H   0  0  0  0  0  0  0  0  0  0  0  0
    0.6187    0.5681    0.6243 H   0  0  0  0  0  0  0  0  0  0  0  0
    4.5238   -1.0432   -1.2163 H   0  0  0  0  0  0  0  0  0  0  0  0
    2.3500    2.0221    0.4484 H   0  0  0  0  0  0  0  0  0  0  0  0
    2.5400    1.9373   -1.3227 H   0  0  0  0  0  0  0  0  0  0  0  0
    5.1517    1.1058   -1.9886 H   0  0  0  0  0  0  0  0  0  0  0  0
    6.2700    1.0153   -0.6142 H   0  0  0  0  0  0  0  0  0  0  0  0
    4.7019    2.2315    0.8065 H   0  0  0  0  0  0  0  0  0  0  0  0
    4.5765    3.0993   -0.7351 H   0  0  0  0  0  0  0  0  0  0  0  0
  1  7  1  0  0  0  0
  1 38  1  0  0  0  0
  2 17  2  0  0  0  0
  3  6  1  0  0  0  0
  3 16  1  0  0  0  0
  3 37  1  0  0  0  0
  4 17  1  0  0  0  0
  4 18  1  0  0  0  0
  4 19  1  0  0  0  0
  5 22  3  0  0  0  0
  6 10  1  0  0  0  0
  6 11  1  0  0  0  0
  6 12  1  0  0  0  0
  7 10  1  0  0  0  0
  7 13  1  0  0  0  0
  7 14  1  0  0  0  0
  8 11  1  0  0  0  0
  8 13  1  0  0  0  0
  8 15  1  0  0  0  0
  8 23  1  0  0  0  0
  9 12  1  0  0  0  0
  9 14  1  0  0  0  0
  9 15  1  0  0  0  0
  9 24  1  0  0  0  0
 10 25  1  0  0  0  0
 10 26  1  0  0  0  0
 11 27  1  0  0  0  0
 11 28  1  0  0  0  0
 12 29  1  0  0  0  0
 12 30  1  0  0  0  0
 13 31  1  0  0  0  0
 13 32  1  0  0  0  0
 14 33  1  0  0  0  0
 14 34  1  0  0  0  0
 15 35  1  0  0  0  0
 15 36  1  0  0  0  0
 16 17  1  0  0  0  0
 16 39  1  0  0  0  0
 16 40  1  0  0  0  0
 18 20  1  0  0  0  0
 18 22  1  0  0  0  0
 18 41  1  0  0  0  0
 19 21  1  0  0  0  0
 19 42  1  0  0  0  0
 19 43  1  0  0  0  0
 20 21  1  0  0  0  0
 20 44  1  0  0  0  0
 20 45  1  0  0  0  0
 21 46  1  0  0  0  0
 21 47  1  0  0  0  0
M  END
> <PUBCHEM_COMPOUND_CID>
5251896

> <PUBCHEM_CONFORMER_RMSD>
0.8

> <PUBCHEM_CONFORMER_DIVERSEORDER>
1
9
6
7
3
11
2
10
5
12
4
8

> <PUBCHEM_MMFF94_PARTIAL_CHARGES>
14
1 -0.68
16 0.33
17 0.57
18 0.5
19 0.3
2 -0.57
22 0.36
3 -0.9
37 0.36
38 0.4
4 -0.66
5 -0.56
6 0.27
7 0.28

> <PUBCHEM_EFFECTIVE_ROTOR_COUNT>
6.2

> <PUBCHEM_PHARMACOPHORE_FEATURES>
11
1 1 acceptor
1 1 donor
1 2 acceptor
1 3 cation
1 3 donor
1 5 acceptor
5 4 18 19 20 21 rings
6 6 7 8 10 11 13 rings
6 6 7 9 10 12 14 rings
6 6 8 9 11 12 15 rings
6 7 8 9 13 14 15 rings

> <PUBCHEM_HEAVY_ATOM_COUNT>
22

> <PUBCHEM_ATOM_DEF_STEREO_COUNT>
0

> <PUBCHEM_ATOM_UDEF_STEREO_COUNT>
3

> <PUBCHEM_BOND_DEF_STEREO_COUNT>
0

> <PUBCHEM_BOND_UDEF_STEREO_COUNT>
0

> <PUBCHEM_ISOTOPIC_ATOM_COUNT>
0

> <PUBCHEM_COMPONENT_COUNT>
1

> <PUBCHEM_CACTVS_TAUTO_COUNT>
1

> <PUBCHEM_CONFORMER_ID>
0050233800000001

> <PUBCHEM_MMFF94_ENERGY>
51.8823

> <PUBCHEM_FEATURE_SELFOVERLAP>
68.346

> <PUBCHEM_SHAPE_FINGERPRINT>
10670039 82 18059590074563254772
10912923 1 18410294731100191474
11315181 36 18342455958814442422
11370993 144 17530964640171051276
11405975 8 17967809427644095352
11545043 162 16298107558109330536
12107183 9 17837783226810835818
12236239 1 18060142037567774589
12507557 5 18409441492649339140
12616971 3 18412830174601093640
12633257 1 18408885109980351916
12670546 56 17676761033223548706
128620 24 16630807716221512550
13167823 11 18040991856484858674
13224815 77 18409169926125166316
13583140 156 17313103081237704440
13675066 3 16732703848398203254
14142880 1 18200882756292929825
14341114 176 17894634772794702662
14739800 52 17844796187610652536
15183329 4 18411708677927137028
15788980 27 17822006502136251082
15880784 105 17749106711865932050
17349148 13 18343584049159887296
17844677 252 17458065958693222188
18186145 218 18410299124988775044
18927931 339 16805327647732448983
19489759 90 17846492621406830970
200 152 18343015627555398199
21033648 29 17385711530680633588
21065201 7 15357689769582894268
21623110 236 18264496255131441621
22854114 59 18114183072637954500
23402539 116 16702306741272920356
23557571 272 16845025570787552140
23559900 14 15285639876521756350
268830 7 18409453591809887912
2838139 119 17970049077402119629
3268164 11 16702300144224421477
34797466 226 15697720427874196528
4214541 1 18408040714677141286
474 4 18341336612832781014
5104073 3 18260828215579058240
542803 24 17989211460080687468
633830 44 18130238063964659558
90127 26 17095522885828514804
960060 61 9943809989231716258
9971528 1 18131349666774420174

> <PUBCHEM_SHAPE_MULTIPOLES>
426.07
12.86
1.83
1.46
12.03
0.24
0.5
0.9
1.35
0.77
0.14
-1.17
0.25
-1.24

> <PUBCHEM_SHAPE_SELFOVERLAP>
917.254

> <PUBCHEM_SHAPE_VOLUME>
227.6

> <PUBCHEM_COORDINATE_TYPE>
2
5
10

$$$$
