60854
  -OEChem-09252021343D

 49 53  0     0  0  0  0  0  0999 V2000
   -3.7598   -3.2474    0.7298 Cl  0  0  0  0  0  0  0  0  0  0  0  0
    6.9150   -1.2788   -0.2655 S   0  0  0  0  0  0  0  0  0  0  0  0
   -8.1804    2.5521   -0.6990 O   0  0  0  0  0  0  0  0  0  0  0  0
    0.3209   -1.2915   -0.0968 N   0  0  0  0  0  0  0  0  0  0  0  0
    3.1422   -0.8571   -0.1988 N   0  0  0  0  0  0  0  0  0  0  0  0
    5.3471   -1.8078   -0.3286 N   0  0  0  0  0  0  0  0  0  0  0  0
   -7.2498    0.4283   -0.3103 N   0  0  0  0  0  0  0  0  0  0  0  0
    0.9204   -0.1382    0.5852 C   0  0  0  0  0  0  0  0  0  0  0  0
    1.0751   -1.5964   -1.3190 C   0  0  0  0  0  0  0  0  0  0  0  0
    2.3741   -0.4220    0.9717 C   0  0  0  0  0  0  0  0  0  0  0  0
    2.5333   -1.9298   -0.9953 C   0  0  0  0  0  0  0  0  0  0  0  0
   -1.0826   -1.0283   -0.4126 C   0  0  0  0  0  0  0  0  0  0  0  0
   -1.8974   -0.8016    0.8613 C   0  0  0  0  0  0  0  0  0  0  0  0
    4.5379   -0.7560   -0.1897 C   0  0  0  0  0  0  0  0  0  0  0  0
   -3.3518   -0.5510    0.5508 C   0  0  0  0  0  0  0  0  0  0  0  0
    5.1589    0.5296   -0.0247 C   0  0  0  0  0  0  0  0  0  0  0  0
   -5.0798    0.9989    0.0620 C   0  0  0  0  0  0  0  0  0  0  0  0
   -3.7478    0.7689    0.3458 C   0  0  0  0  0  0  0  0  0  0  0  0
   -5.9820   -0.0591   -0.0135 C   0  0  0  0  0  0  0  0  0  0  0  0
   -4.2622   -1.6140    0.4741 C   0  0  0  0  0  0  0  0  0  0  0  0
   -5.7948    2.2855   -0.2030 C   0  0  0  0  0  0  0  0  0  0  0  0
    6.5482    0.3881   -0.0479 C   0  0  0  0  0  0  0  0  0  0  0  0
   -5.6069   -1.3720    0.1868 C   0  0  0  0  0  0  0  0  0  0  0  0
   -7.2361    1.8213   -0.4423 C   0  0  0  0  0  0  0  0  0  0  0  0
    4.6179    1.8230    0.1453 C   0  0  0  0  0  0  0  0  0  0  0  0
    7.4150    1.4831    0.0915 C   0  0  0  0  0  0  0  0  0  0  0  0
    5.4727    2.9212    0.2848 C   0  0  0  0  0  0  0  0  0  0  0  0
    6.8527    2.7510    0.2579 C   0  0  0  0  0  0  0  0  0  0  0  0
    0.4174    0.0918    1.5278 H   0  0  0  0  0  0  0  0  0  0  0  0
    0.8744    0.7594   -0.0459 H   0  0  0  0  0  0  0  0  0  0  0  0
    1.0390   -0.7501   -2.0182 H   0  0  0  0  0  0  0  0  0  0  0  0
    0.6324   -2.4606   -1.8292 H   0  0  0  0  0  0  0  0  0  0  0  0
    2.7921    0.4589    1.4647 H   0  0  0  0  0  0  0  0  0  0  0  0
    2.4001   -1.2256    1.7205 H   0  0  0  0  0  0  0  0  0  0  0  0
    2.5884   -2.8752   -0.4403 H   0  0  0  0  0  0  0  0  0  0  0  0
    3.0750   -2.0654   -1.9398 H   0  0  0  0  0  0  0  0  0  0  0  0
   -1.1793   -0.1636   -1.0835 H   0  0  0  0  0  0  0  0  0  0  0  0
   -1.4985   -1.8895   -0.9510 H   0  0  0  0  0  0  0  0  0  0  0  0
   -1.5525    0.0787    1.4148 H   0  0  0  0  0  0  0  0  0  0  0  0
   -1.7751   -1.6343    1.5637 H   0  0  0  0  0  0  0  0  0  0  0  0
   -3.0455    1.5937    0.4010 H   0  0  0  0  0  0  0  0  0  0  0  0
   -5.7632    2.9474    0.6661 H   0  0  0  0  0  0  0  0  0  0  0  0
   -5.4148    2.7770   -1.1022 H   0  0  0  0  0  0  0  0  0  0  0  0
   -6.3318   -2.1765    0.1215 H   0  0  0  0  0  0  0  0  0  0  0  0
   -8.0684   -0.1593   -0.4150 H   0  0  0  0  0  0  0  0  0  0  0  0
    3.5465    2.0011    0.1349 H   0  0  0  0  0  0  0  0  0  0  0  0
    8.4928    1.3557    0.0709 H   0  0  0  0  0  0  0  0  0  0  0  0
    5.0534    3.9162    0.4068 H   0  0  0  0  0  0  0  0  0  0  0  0
    7.5034    3.6147    0.3657 H   0  0  0  0  0  0  0  0  0  0  0  0
  1 20  1  0  0  0  0
  2  6  1  0  0  0  0
  2 22  1  0  0  0  0
  3 24  2  0  0  0  0
  4  8  1  0  0  0  0
  4  9  1  0  0  0  0
  4 12  1  0  0  0  0
  5 10  1  0  0  0  0
  5 11  1  0  0  0  0
  5 14  1  0  0  0  0
  6 14  2  0  0  0  0
  7 19  1  0  0  0  0
  7 24  1  0  0  0  0
  7 45  1  0  0  0  0
  8 10  1  0  0  0  0
  8 29  1  0  0  0  0
  8 30  1  0  0  0  0
  9 11  1  0  0  0  0
  9 31  1  0  0  0  0
  9 32  1  0  0  0  0
 10 33  1  0  0  0  0
 10 34  1  0  0  0  0
 11 35  1  0  0  0  0
 11 36  1  0  0  0  0
 12 13  1  0  0  0  0
 12 37  1  0  0  0  0
 12 38  1  0  0  0  0
 13 15  1  0  0  0  0
 13 39  1  0  0  0  0
 13 40  1  0  0  0  0
 14 16  1  0  0  0  0
 15 18  1  0  0  0  0
 15 20  2  0  0  0  0
 16 22  1  0  0  0  0
 16 25  2  0  0  0  0
 17 18  2  0  0  0  0
 17 19  1  0  0  0  0
 17 21  1  0  0  0  0
 18 41  1  0  0  0  0
 19 23  2  0  0  0  0
 20 23  1  0  0  0  0
 21 24  1  0  0  0  0
 21 42  1  0  0  0  0
 21 43  1  0  0  0  0
 22 26  2  0  0  0  0
 23 44  1  0  0  0  0
 25 27  1  0  0  0  0
 25 46  1  0  0  0  0
 26 28  1  0  0  0  0
 26 47  1  0  0  0  0
 27 28  2  0  0  0  0
 27 48  1  0  0  0  0
 28 49  1  0  0  0  0
M  END
> <PUBCHEM_COMPOUND_CID>
60854

> <PUBCHEM_CONFORMER_RMSD>
0.8

> <PUBCHEM_CONFORMER_DIVERSEORDER>
3
51
5
69
107
87
29
27
89
56
19
48
96
38
76
4
66
103
57
111
85
97
100
75
42
80
52
12
30
41
63
110
58
98
24
101
93
37
72
35
109
82
28
13
40
106
10
34
113
83
15
32
74
47
78
108
84
88
73
64
1
20
46
59
91
116
21
60
62
81
44
43
31
50
102
86
22
114
79
17
14
112
9
67
11
95
92
36
2
65
115
7
33
61
104
25
39
49
94
90
71
18
8
6
55
45
68
53
23
70
54
77
99
16
105
26

> <PUBCHEM_MMFF94_PARTIAL_CHARGES>
34
1 -0.18
10 0.37
11 0.37
12 0.27
13 0.14
14 0.37
15 -0.14
17 -0.14
18 -0.15
19 0.12
2 0.18
20 0.18
21 0.2
22 0.04
23 -0.15
24 0.57
25 -0.15
26 -0.15
27 -0.15
28 -0.15
3 -0.57
4 -0.81
41 0.15
44 0.15
45 0.37
46 0.15
47 0.15
48 0.15
49 0.15
5 -0.82
6 -0.51
7 -0.55
8 0.27
9 0.27

> <PUBCHEM_EFFECTIVE_ROTOR_COUNT>
5.6

> <PUBCHEM_PHARMACOPHORE_FEATURES>
9
1 3 acceptor
1 4 cation
1 7 donor
3 5 6 14 cation
5 2 6 14 16 22 rings
5 7 17 19 21 24 rings
6 15 17 18 19 20 23 rings
6 16 22 25 26 27 28 rings
6 4 5 8 9 10 11 rings

> <PUBCHEM_HEAVY_ATOM_COUNT>
28

> <PUBCHEM_ATOM_DEF_STEREO_COUNT>
0

> <PUBCHEM_ATOM_UDEF_STEREO_COUNT>
0

> <PUBCHEM_BOND_DEF_STEREO_COUNT>
0

> <PUBCHEM_BOND_UDEF_STEREO_COUNT>
0

> <PUBCHEM_ISOTOPIC_ATOM_COUNT>
0

> <PUBCHEM_COMPONENT_COUNT>
1

> <PUBCHEM_CACTVS_TAUTO_COUNT>
3

> <PUBCHEM_CONFORMER_ID>
0000EDB600000003

> <PUBCHEM_MMFF94_ENERGY>
76.197

> <PUBCHEM_FEATURE_SELFOVERLAP>
45.821

> <PUBCHEM_SHAPE_FINGERPRINT>
10 15 18260270759031083619
10066227 112 18413106169088855689
10411042 1 17903080272871710867
10554248 39 17560526109953783870
10673678 19 18272937167590863996
10835480 77 18412827975556719491
11315181 36 17989209248726515659
11409948 8 18261406547118622289
11607047 74 11597992277969029339
11719270 70 17988640762270839918
11991303 11 17203604938525483063
125118 31 18333734632773197748
12522641 126 15482123665431134020
12522641 24 17894904085004774218
12838862 33 17775277301702257104
13383665 225 17895492379744949196
13673619 4 9007053569925520111
13740195 50 18261683619548080657
13878862 14 18272072908597055548
13911987 19 17203330005501251383
14251757 52 18408881837120515472
14556957 393 16917079849374810569
14933364 13 18409731776714620346
15131766 46 18125152986776277996
15152005 77 16413246106038472502
15183329 4 18272373061700669712
15320295 198 18341053003231528696
15400415 2 18409168809423840883
15419008 145 18262225631188306712
15461852 350 17988921198096969791
15961568 22 18408887342963231397
16989713 51 17416677154559654823
17134984 74 11600009843314608276
18335252 114 18131633375039399996
19611394 137 18117006687634616835
20105231 36 12035726488849885288
20157964 124 18272093786390655886
2026 5 10519719877346389948
20281389 69 18333732403146775953
20511986 3 17749097882004222859
21033648 29 18339068398197305824
21130935 74 18039871440935223314
21424621 283 18040998440511338347
21585482 111 18337391647456022388
21792934 111 18272359847114493314
23081809 10 15984835795850420026
23559900 14 18271801367768801289
23569914 2 17761723612359771260
23569943 247 11382464853272179404
23576562 1 17417237879028737293
24771293 8 17823136886421825428
312425 54 17530962505889083162
328310 630 18131362903436573273
33532 11 9007054664899509533
34797466 226 17988655094064490607
397830 11 18262811790142630218
4073 2 18114749334170092458
4144715 1 18263093248155736450
4169191 19 18272658947761669969
444735 82 18261960747221835036
44880568 143 17916030058313095581
504843 32 17703507800294749647
5385378 56 16515680001129334882
5937810 71 18129946664347884057
6086070 43 16629955646096840394
6328613 192 18412545414059070537
636775 72 18335701599426346989
99344 41 18409728487075672192

> <PUBCHEM_SHAPE_MULTIPOLES>
556.15
25.53
3.13
0.87
5
0.84
0.04
16.27
1.82
0.41
0.06
0.1
-0.24
2.24

> <PUBCHEM_SHAPE_SELFOVERLAP>
1200.428

> <PUBCHEM_SHAPE_VOLUME>
309.3

> <PUBCHEM_COORDINATE_TYPE>
2
5
10

$$$$
